---------- Begin Simulation Statistics ----------
simSeconds                                   4.948156                       # Number of seconds simulated (Second)
simTicks                                 4948156146500                       # Number of ticks simulated (Tick)
finalTick                                4948156146500                       # Number of ticks from beginning of simulation (restored from checkpoints and never reset) (Tick)
simFreq                                  1000000000000                       # The number of ticks per simulated second ((Tick/Second))
hostSeconds                                    224.30                       # Real time elapsed on the host (Second)
hostTickRate                              22060108537                       # The number of ticks simulated per host second (ticks/s) ((Tick/Second))
hostMemory                                     960440                       # Number of bytes of host memory used (Byte)
simInsts                                    421649989                       # Number of instructions simulated (Count)
simOps                                      954580540                       # Number of ops (including micro ops) simulated (Count)
hostInstRate                                  1879820                       # Simulator instruction rate (inst/s) ((Count/Second))
hostOpRate                                    4255756                       # Simulator op (including micro ops) rate (op/s) ((Count/Second))
system.apicbridge.power_state.pwrStateResidencyTicks::UNDEFINED 4948156146500                       # Cumulative time (in ticks) in various power states (Tick)
system.bridge.power_state.pwrStateResidencyTicks::UNDEFINED 4948156146500                       # Cumulative time (in ticks) in various power states (Tick)
system.clk_domain.clock                           417                       # Clock period in ticks (Tick)
system.cpu.numCycles                       9897419765                       # Number of cpu cycles simulated (Cycle)
system.cpu.numWorkItemsStarted                      0                       # Number of work items this cpu started (Count)
system.cpu.numWorkItemsCompleted                    0                       # Number of work items this cpu completed (Count)
system.cpu.dcache.demandHits::cpu.data      129333348                       # number of demand (read+write) hits (Count)
system.cpu.dcache.demandHits::total         129333348                       # number of demand (read+write) hits (Count)
system.cpu.dcache.overallHits::cpu.data     129401708                       # number of overall hits (Count)
system.cpu.dcache.overallHits::total        129401708                       # number of overall hits (Count)
system.cpu.dcache.demandMisses::cpu.data      6587152                       # number of demand (read+write) misses (Count)
system.cpu.dcache.demandMisses::total         6587152                       # number of demand (read+write) misses (Count)
system.cpu.dcache.overallMisses::cpu.data      6755603                       # number of overall misses (Count)
system.cpu.dcache.overallMisses::total        6755603                       # number of overall misses (Count)
system.cpu.dcache.demandAccesses::cpu.data    135920500                       # number of demand (read+write) accesses (Count)
system.cpu.dcache.demandAccesses::total     135920500                       # number of demand (read+write) accesses (Count)
system.cpu.dcache.overallAccesses::cpu.data    136157311                       # number of overall (read+write) accesses (Count)
system.cpu.dcache.overallAccesses::total    136157311                       # number of overall (read+write) accesses (Count)
system.cpu.dcache.demandMissRate::cpu.data     0.048463                       # miss rate for demand accesses (Ratio)
system.cpu.dcache.demandMissRate::total      0.048463                       # miss rate for demand accesses (Ratio)
system.cpu.dcache.overallMissRate::cpu.data     0.049616                       # miss rate for overall accesses (Ratio)
system.cpu.dcache.overallMissRate::total     0.049616                       # miss rate for overall accesses (Ratio)
system.cpu.dcache.blockedCycles::no_mshrs            0                       # number of cycles access was blocked (Cycle)
system.cpu.dcache.blockedCycles::no_targets            0                       # number of cycles access was blocked (Cycle)
system.cpu.dcache.blockedCauses::no_mshrs            0                       # number of times access was blocked (Count)
system.cpu.dcache.blockedCauses::no_targets            0                       # number of times access was blocked (Count)
system.cpu.dcache.avgBlocked::no_mshrs            nan                       # average number of cycles each access was blocked ((Cycle/Count))
system.cpu.dcache.avgBlocked::no_targets          nan                       # average number of cycles each access was blocked ((Cycle/Count))
system.cpu.dcache.writebacks::writebacks      6196478                       # number of writebacks (Count)
system.cpu.dcache.writebacks::total           6196478                       # number of writebacks (Count)
system.cpu.dcache.replacements                6753150                       # number of replacements (Count)
system.cpu.dcache.LockedRMWReadReq.hits::cpu.data       422774                       # number of LockedRMWReadReq hits (Count)
system.cpu.dcache.LockedRMWReadReq.hits::total       422774                       # number of LockedRMWReadReq hits (Count)
system.cpu.dcache.LockedRMWReadReq.misses::cpu.data         2362                       # number of LockedRMWReadReq misses (Count)
system.cpu.dcache.LockedRMWReadReq.misses::total         2362                       # number of LockedRMWReadReq misses (Count)
system.cpu.dcache.LockedRMWReadReq.accesses::cpu.data       425136                       # number of LockedRMWReadReq accesses(hits+misses) (Count)
system.cpu.dcache.LockedRMWReadReq.accesses::total       425136                       # number of LockedRMWReadReq accesses(hits+misses) (Count)
system.cpu.dcache.LockedRMWReadReq.missRate::cpu.data     0.005556                       # miss rate for LockedRMWReadReq accesses (Ratio)
system.cpu.dcache.LockedRMWReadReq.missRate::total     0.005556                       # miss rate for LockedRMWReadReq accesses (Ratio)
system.cpu.dcache.LockedRMWWriteReq.hits::cpu.data       425136                       # number of LockedRMWWriteReq hits (Count)
system.cpu.dcache.LockedRMWWriteReq.hits::total       425136                       # number of LockedRMWWriteReq hits (Count)
system.cpu.dcache.LockedRMWWriteReq.accesses::cpu.data       425136                       # number of LockedRMWWriteReq accesses(hits+misses) (Count)
system.cpu.dcache.LockedRMWWriteReq.accesses::total       425136                       # number of LockedRMWWriteReq accesses(hits+misses) (Count)
system.cpu.dcache.ReadReq.hits::cpu.data    100966946                       # number of ReadReq hits (Count)
system.cpu.dcache.ReadReq.hits::total       100966946                       # number of ReadReq hits (Count)
system.cpu.dcache.ReadReq.misses::cpu.data      6020360                       # number of ReadReq misses (Count)
system.cpu.dcache.ReadReq.misses::total       6020360                       # number of ReadReq misses (Count)
system.cpu.dcache.ReadReq.accesses::cpu.data    106987306                       # number of ReadReq accesses(hits+misses) (Count)
system.cpu.dcache.ReadReq.accesses::total    106987306                       # number of ReadReq accesses(hits+misses) (Count)
system.cpu.dcache.ReadReq.missRate::cpu.data     0.056272                       # miss rate for ReadReq accesses (Ratio)
system.cpu.dcache.ReadReq.missRate::total     0.056272                       # miss rate for ReadReq accesses (Ratio)
system.cpu.dcache.SoftPFReq.hits::cpu.data        68360                       # number of SoftPFReq hits (Count)
system.cpu.dcache.SoftPFReq.hits::total         68360                       # number of SoftPFReq hits (Count)
system.cpu.dcache.SoftPFReq.misses::cpu.data       168451                       # number of SoftPFReq misses (Count)
system.cpu.dcache.SoftPFReq.misses::total       168451                       # number of SoftPFReq misses (Count)
system.cpu.dcache.SoftPFReq.accesses::cpu.data       236811                       # number of SoftPFReq accesses(hits+misses) (Count)
system.cpu.dcache.SoftPFReq.accesses::total       236811                       # number of SoftPFReq accesses(hits+misses) (Count)
system.cpu.dcache.SoftPFReq.missRate::cpu.data     0.711331                       # miss rate for SoftPFReq accesses (Ratio)
system.cpu.dcache.SoftPFReq.missRate::total     0.711331                       # miss rate for SoftPFReq accesses (Ratio)
system.cpu.dcache.WriteReq.hits::cpu.data     28366402                       # number of WriteReq hits (Count)
system.cpu.dcache.WriteReq.hits::total       28366402                       # number of WriteReq hits (Count)
system.cpu.dcache.WriteReq.misses::cpu.data       566792                       # number of WriteReq misses (Count)
system.cpu.dcache.WriteReq.misses::total       566792                       # number of WriteReq misses (Count)
system.cpu.dcache.WriteReq.accesses::cpu.data     28933194                       # number of WriteReq accesses(hits+misses) (Count)
system.cpu.dcache.WriteReq.accesses::total     28933194                       # number of WriteReq accesses(hits+misses) (Count)
system.cpu.dcache.WriteReq.missRate::cpu.data     0.019590                       # miss rate for WriteReq accesses (Ratio)
system.cpu.dcache.WriteReq.missRate::total     0.019590                       # miss rate for WriteReq accesses (Ratio)
system.cpu.dcache.power_state.pwrStateResidencyTicks::UNDEFINED 4948156146500                       # Cumulative time (in ticks) in various power states (Tick)
system.cpu.dcache.tags.tagsInUse          1023.981799                       # Average ticks per tags in use ((Tick/Count))
system.cpu.dcache.tags.totalRefs            136952776                       # Total number of references to valid blocks. (Count)
system.cpu.dcache.tags.sampledRefs            6753314                       # Sample count of references to valid blocks. (Count)
system.cpu.dcache.tags.avgRefs              20.279344                       # Average number of references to valid blocks. ((Count/Count))
system.cpu.dcache.tags.warmupTick               12000                       # The tick when the warmup percentage was hit. (Tick)
system.cpu.dcache.tags.occupancies::cpu.data  1023.981799                       # Average occupied blocks per tick, per requestor ((Count/Tick))
system.cpu.dcache.tags.avgOccs::cpu.data     0.999982                       # Average percentage of cache occupancy ((Ratio/Tick))
system.cpu.dcache.tags.avgOccs::total        0.999982                       # Average percentage of cache occupancy ((Ratio/Tick))
system.cpu.dcache.tags.occupanciesTaskId::1024         1024                       # Occupied blocks per task id (Count)
system.cpu.dcache.tags.ageTaskId_1024::0          159                       # Occupied blocks per task id, per block age (Count)
system.cpu.dcache.tags.ageTaskId_1024::1          673                       # Occupied blocks per task id, per block age (Count)
system.cpu.dcache.tags.ageTaskId_1024::2          187                       # Occupied blocks per task id, per block age (Count)
system.cpu.dcache.tags.ageTaskId_1024::3            5                       # Occupied blocks per task id, per block age (Count)
system.cpu.dcache.tags.ratioOccsTaskId::1024            1                       # Ratio of occupied blocks and all blocks, per task id (Ratio)
system.cpu.dcache.tags.tagAccesses          280769504                       # Number of tag accesses (Count)
system.cpu.dcache.tags.dataAccesses         280769504                       # Number of data accesses (Count)
system.cpu.dcache.tags.power_state.pwrStateResidencyTicks::UNDEFINED 4948156146500                       # Cumulative time (in ticks) in various power states (Tick)
system.cpu.dtb_walker_cache.demandHits::cpu.mmu.dtb.walker        11137                       # number of demand (read+write) hits (Count)
system.cpu.dtb_walker_cache.demandHits::total        11137                       # number of demand (read+write) hits (Count)
system.cpu.dtb_walker_cache.overallHits::cpu.mmu.dtb.walker        11137                       # number of overall hits (Count)
system.cpu.dtb_walker_cache.overallHits::total        11137                       # number of overall hits (Count)
system.cpu.dtb_walker_cache.demandMisses::cpu.mmu.dtb.walker        12199                       # number of demand (read+write) misses (Count)
system.cpu.dtb_walker_cache.demandMisses::total        12199                       # number of demand (read+write) misses (Count)
system.cpu.dtb_walker_cache.overallMisses::cpu.mmu.dtb.walker        12199                       # number of overall misses (Count)
system.cpu.dtb_walker_cache.overallMisses::total        12199                       # number of overall misses (Count)
system.cpu.dtb_walker_cache.demandAccesses::cpu.mmu.dtb.walker        23336                       # number of demand (read+write) accesses (Count)
system.cpu.dtb_walker_cache.demandAccesses::total        23336                       # number of demand (read+write) accesses (Count)
system.cpu.dtb_walker_cache.overallAccesses::cpu.mmu.dtb.walker        23336                       # number of overall (read+write) accesses (Count)
system.cpu.dtb_walker_cache.overallAccesses::total        23336                       # number of overall (read+write) accesses (Count)
system.cpu.dtb_walker_cache.demandMissRate::cpu.mmu.dtb.walker     0.522755                       # miss rate for demand accesses (Ratio)
system.cpu.dtb_walker_cache.demandMissRate::total     0.522755                       # miss rate for demand accesses (Ratio)
system.cpu.dtb_walker_cache.overallMissRate::cpu.mmu.dtb.walker     0.522755                       # miss rate for overall accesses (Ratio)
system.cpu.dtb_walker_cache.overallMissRate::total     0.522755                       # miss rate for overall accesses (Ratio)
system.cpu.dtb_walker_cache.blockedCycles::no_mshrs            0                       # number of cycles access was blocked (Cycle)
system.cpu.dtb_walker_cache.blockedCycles::no_targets            0                       # number of cycles access was blocked (Cycle)
system.cpu.dtb_walker_cache.blockedCauses::no_mshrs            0                       # number of times access was blocked (Count)
system.cpu.dtb_walker_cache.blockedCauses::no_targets            0                       # number of times access was blocked (Count)
system.cpu.dtb_walker_cache.avgBlocked::no_mshrs          nan                       # average number of cycles each access was blocked ((Cycle/Count))
system.cpu.dtb_walker_cache.avgBlocked::no_targets          nan                       # average number of cycles each access was blocked ((Cycle/Count))
system.cpu.dtb_walker_cache.writebacks::writebacks          407                       # number of writebacks (Count)
system.cpu.dtb_walker_cache.writebacks::total          407                       # number of writebacks (Count)
system.cpu.dtb_walker_cache.replacements         9342                       # number of replacements (Count)
system.cpu.dtb_walker_cache.ReadReq.hits::cpu.mmu.dtb.walker        11137                       # number of ReadReq hits (Count)
system.cpu.dtb_walker_cache.ReadReq.hits::total        11137                       # number of ReadReq hits (Count)
system.cpu.dtb_walker_cache.ReadReq.misses::cpu.mmu.dtb.walker        12199                       # number of ReadReq misses (Count)
system.cpu.dtb_walker_cache.ReadReq.misses::total        12199                       # number of ReadReq misses (Count)
system.cpu.dtb_walker_cache.ReadReq.accesses::cpu.mmu.dtb.walker        23336                       # number of ReadReq accesses(hits+misses) (Count)
system.cpu.dtb_walker_cache.ReadReq.accesses::total        23336                       # number of ReadReq accesses(hits+misses) (Count)
system.cpu.dtb_walker_cache.ReadReq.missRate::cpu.mmu.dtb.walker     0.522755                       # miss rate for ReadReq accesses (Ratio)
system.cpu.dtb_walker_cache.ReadReq.missRate::total     0.522755                       # miss rate for ReadReq accesses (Ratio)
system.cpu.dtb_walker_cache.power_state.pwrStateResidencyTicks::UNDEFINED 4948156146500                       # Cumulative time (in ticks) in various power states (Tick)
system.cpu.dtb_walker_cache.tags.tagsInUse     8.253099                       # Average ticks per tags in use ((Tick/Count))
system.cpu.dtb_walker_cache.tags.totalRefs        23294                       # Total number of references to valid blocks. (Count)
system.cpu.dtb_walker_cache.tags.sampledRefs        12188                       # Sample count of references to valid blocks. (Count)
system.cpu.dtb_walker_cache.tags.avgRefs     1.911224                       # Average number of references to valid blocks. ((Count/Count))
system.cpu.dtb_walker_cache.tags.warmupTick        12000                       # The tick when the warmup percentage was hit. (Tick)
system.cpu.dtb_walker_cache.tags.occupancies::cpu.mmu.dtb.walker     8.253099                       # Average occupied blocks per tick, per requestor ((Count/Tick))
system.cpu.dtb_walker_cache.tags.avgOccs::cpu.mmu.dtb.walker     0.515819                       # Average percentage of cache occupancy ((Ratio/Tick))
system.cpu.dtb_walker_cache.tags.avgOccs::total     0.515819                       # Average percentage of cache occupancy ((Ratio/Tick))
system.cpu.dtb_walker_cache.tags.occupanciesTaskId::1024           11                       # Occupied blocks per task id (Count)
system.cpu.dtb_walker_cache.tags.ageTaskId_1024::0            4                       # Occupied blocks per task id, per block age (Count)
system.cpu.dtb_walker_cache.tags.ageTaskId_1024::1            3                       # Occupied blocks per task id, per block age (Count)
system.cpu.dtb_walker_cache.tags.ageTaskId_1024::2            3                       # Occupied blocks per task id, per block age (Count)
system.cpu.dtb_walker_cache.tags.ageTaskId_1024::3            1                       # Occupied blocks per task id, per block age (Count)
system.cpu.dtb_walker_cache.tags.ratioOccsTaskId::1024     0.687500                       # Ratio of occupied blocks and all blocks, per task id (Ratio)
system.cpu.dtb_walker_cache.tags.tagAccesses        58871                       # Number of tag accesses (Count)
system.cpu.dtb_walker_cache.tags.dataAccesses        58871                       # Number of data accesses (Count)
system.cpu.dtb_walker_cache.tags.power_state.pwrStateResidencyTicks::UNDEFINED 4948156146500                       # Cumulative time (in ticks) in various power states (Tick)
system.cpu.exec_context.thread_0.numInsts    421649989                       # Number of instructions committed (Count)
system.cpu.exec_context.thread_0.numOps     954580540                       # Number of ops (including micro ops) committed (Count)
system.cpu.exec_context.thread_0.numIntAluAccesses    881921531                       # Number of integer alu accesses (Count)
system.cpu.exec_context.thread_0.numFpAluAccesses        41342                       # Number of float alu accesses (Count)
system.cpu.exec_context.thread_0.numVecAluAccesses            0                       # Number of vector alu accesses (Count)
system.cpu.exec_context.thread_0.numCallsReturns     13653327                       # Number of times a function call or return occured (Count)
system.cpu.exec_context.thread_0.numCondCtrlInsts    119091008                       # Number of instructions that are conditional controls (Count)
system.cpu.exec_context.thread_0.numIntInsts    881921531                       # Number of integer instructions (Count)
system.cpu.exec_context.thread_0.numFpInsts        41342                       # Number of float instructions (Count)
system.cpu.exec_context.thread_0.numVecInsts            0                       # Number of vector instructions (Count)
system.cpu.exec_context.thread_0.numIntRegReads    919505581                       # Number of times the integer registers were read (Count)
system.cpu.exec_context.thread_0.numIntRegWrites    624793886                       # Number of times the integer registers were written (Count)
system.cpu.exec_context.thread_0.numFpRegReads        69490                       # Number of times the floating registers were read (Count)
system.cpu.exec_context.thread_0.numFpRegWrites        32865                       # Number of times the floating registers were written (Count)
system.cpu.exec_context.thread_0.numVecRegReads            0                       # Number of times the vector registers were read (Count)
system.cpu.exec_context.thread_0.numVecRegWrites            0                       # Number of times the vector registers were written (Count)
system.cpu.exec_context.thread_0.numVecPredRegReads            0                       # Number of times the predicate registers were read (Count)
system.cpu.exec_context.thread_0.numVecPredRegWrites            0                       # Number of times the predicate registers were written (Count)
system.cpu.exec_context.thread_0.numCCRegReads    653451896                       # Number of times the CC registers were read (Count)
system.cpu.exec_context.thread_0.numCCRegWrites    305498209                       # Number of times the CC registers were written (Count)
system.cpu.exec_context.thread_0.numMiscRegReads    432683873                       # Number of times the Misc registers were read (Count)
system.cpu.exec_context.thread_0.numMiscRegWrites       424467                       # Number of times the Misc registers were written (Count)
system.cpu.exec_context.thread_0.numMemRefs    139946006                       # Number of memory refs (Count)
system.cpu.exec_context.thread_0.numLoadInsts    110566882                       # Number of load instructions (Count)
system.cpu.exec_context.thread_0.numStoreInsts     29379124                       # Number of store instructions (Count)
system.cpu.exec_context.thread_0.numIdleCycles 8818689178.265739                       # Number of idle cycles (Cycle)
system.cpu.exec_context.thread_0.numBusyCycles 1078730586.734261                       # Number of busy cycles (Cycle)
system.cpu.exec_context.thread_0.notIdleFraction     0.108991                       # Percentage of non-idle cycles (Ratio)
system.cpu.exec_context.thread_0.idleFraction     0.891009                       # Percentage of idle cycles (Ratio)
system.cpu.exec_context.thread_0.numBranches    137153128                       # Number of branches fetched (Count)
system.cpu.exec_context.thread_0.statExecutedInstType::No_OpClass      5725077      0.60%      0.60% # Class of executed instruction. (Count)
system.cpu.exec_context.thread_0.statExecutedInstType::IntAlu    808523817     84.70%     85.30% # Class of executed instruction. (Count)
system.cpu.exec_context.thread_0.statExecutedInstType::IntMult       326318      0.03%     85.33% # Class of executed instruction. (Count)
system.cpu.exec_context.thread_0.statExecutedInstType::IntDiv        31592      0.00%     85.34% # Class of executed instruction. (Count)
system.cpu.exec_context.thread_0.statExecutedInstType::FloatAdd          759      0.00%     85.34% # Class of executed instruction. (Count)
system.cpu.exec_context.thread_0.statExecutedInstType::FloatCmp            0      0.00%     85.34% # Class of executed instruction. (Count)
system.cpu.exec_context.thread_0.statExecutedInstType::FloatCvt           16      0.00%     85.34% # Class of executed instruction. (Count)
system.cpu.exec_context.thread_0.statExecutedInstType::FloatMult            0      0.00%     85.34% # Class of executed instruction. (Count)
system.cpu.exec_context.thread_0.statExecutedInstType::FloatMultAcc            0      0.00%     85.34% # Class of executed instruction. (Count)
system.cpu.exec_context.thread_0.statExecutedInstType::FloatDiv            0      0.00%     85.34% # Class of executed instruction. (Count)
system.cpu.exec_context.thread_0.statExecutedInstType::FloatMisc            0      0.00%     85.34% # Class of executed instruction. (Count)
system.cpu.exec_context.thread_0.statExecutedInstType::FloatSqrt            0      0.00%     85.34% # Class of executed instruction. (Count)
system.cpu.exec_context.thread_0.statExecutedInstType::SimdAdd         1308      0.00%     85.34% # Class of executed instruction. (Count)
system.cpu.exec_context.thread_0.statExecutedInstType::SimdAddAcc            0      0.00%     85.34% # Class of executed instruction. (Count)
system.cpu.exec_context.thread_0.statExecutedInstType::SimdAlu         4052      0.00%     85.34% # Class of executed instruction. (Count)
system.cpu.exec_context.thread_0.statExecutedInstType::SimdCmp            0      0.00%     85.34% # Class of executed instruction. (Count)
system.cpu.exec_context.thread_0.statExecutedInstType::SimdCvt         9586      0.00%     85.34% # Class of executed instruction. (Count)
system.cpu.exec_context.thread_0.statExecutedInstType::SimdMisc        13059      0.00%     85.34% # Class of executed instruction. (Count)
system.cpu.exec_context.thread_0.statExecutedInstType::SimdMult            0      0.00%     85.34% # Class of executed instruction. (Count)
system.cpu.exec_context.thread_0.statExecutedInstType::SimdMultAcc            0      0.00%     85.34% # Class of executed instruction. (Count)
system.cpu.exec_context.thread_0.statExecutedInstType::SimdShift          616      0.00%     85.34% # Class of executed instruction. (Count)
system.cpu.exec_context.thread_0.statExecutedInstType::SimdShiftAcc            0      0.00%     85.34% # Class of executed instruction. (Count)
system.cpu.exec_context.thread_0.statExecutedInstType::SimdDiv            0      0.00%     85.34% # Class of executed instruction. (Count)
system.cpu.exec_context.thread_0.statExecutedInstType::SimdSqrt            0      0.00%     85.34% # Class of executed instruction. (Count)
system.cpu.exec_context.thread_0.statExecutedInstType::SimdFloatAdd            0      0.00%     85.34% # Class of executed instruction. (Count)
system.cpu.exec_context.thread_0.statExecutedInstType::SimdFloatAlu            0      0.00%     85.34% # Class of executed instruction. (Count)
system.cpu.exec_context.thread_0.statExecutedInstType::SimdFloatCmp            0      0.00%     85.34% # Class of executed instruction. (Count)
system.cpu.exec_context.thread_0.statExecutedInstType::SimdFloatCvt            0      0.00%     85.34% # Class of executed instruction. (Count)
system.cpu.exec_context.thread_0.statExecutedInstType::SimdFloatDiv            0      0.00%     85.34% # Class of executed instruction. (Count)
system.cpu.exec_context.thread_0.statExecutedInstType::SimdFloatMisc            0      0.00%     85.34% # Class of executed instruction. (Count)
system.cpu.exec_context.thread_0.statExecutedInstType::SimdFloatMult            0      0.00%     85.34% # Class of executed instruction. (Count)
system.cpu.exec_context.thread_0.statExecutedInstType::SimdFloatMultAcc            0      0.00%     85.34% # Class of executed instruction. (Count)
system.cpu.exec_context.thread_0.statExecutedInstType::SimdFloatSqrt            0      0.00%     85.34% # Class of executed instruction. (Count)
system.cpu.exec_context.thread_0.statExecutedInstType::SimdReduceAdd            0      0.00%     85.34% # Class of executed instruction. (Count)
system.cpu.exec_context.thread_0.statExecutedInstType::SimdReduceAlu            0      0.00%     85.34% # Class of executed instruction. (Count)
system.cpu.exec_context.thread_0.statExecutedInstType::SimdReduceCmp            0      0.00%     85.34% # Class of executed instruction. (Count)
system.cpu.exec_context.thread_0.statExecutedInstType::SimdFloatReduceAdd            0      0.00%     85.34% # Class of executed instruction. (Count)
system.cpu.exec_context.thread_0.statExecutedInstType::SimdFloatReduceCmp            0      0.00%     85.34% # Class of executed instruction. (Count)
system.cpu.exec_context.thread_0.statExecutedInstType::SimdAes            0      0.00%     85.34% # Class of executed instruction. (Count)
system.cpu.exec_context.thread_0.statExecutedInstType::SimdAesMix            0      0.00%     85.34% # Class of executed instruction. (Count)
system.cpu.exec_context.thread_0.statExecutedInstType::SimdSha1Hash            0      0.00%     85.34% # Class of executed instruction. (Count)
system.cpu.exec_context.thread_0.statExecutedInstType::SimdSha1Hash2            0      0.00%     85.34% # Class of executed instruction. (Count)
system.cpu.exec_context.thread_0.statExecutedInstType::SimdSha256Hash            0      0.00%     85.34% # Class of executed instruction. (Count)
system.cpu.exec_context.thread_0.statExecutedInstType::SimdSha256Hash2            0      0.00%     85.34% # Class of executed instruction. (Count)
system.cpu.exec_context.thread_0.statExecutedInstType::SimdShaSigma2            0      0.00%     85.34% # Class of executed instruction. (Count)
system.cpu.exec_context.thread_0.statExecutedInstType::SimdShaSigma3            0      0.00%     85.34% # Class of executed instruction. (Count)
system.cpu.exec_context.thread_0.statExecutedInstType::SimdPredAlu            0      0.00%     85.34% # Class of executed instruction. (Count)
system.cpu.exec_context.thread_0.statExecutedInstType::MemRead    110558306     11.58%     96.92% # Class of executed instruction. (Count)
system.cpu.exec_context.thread_0.statExecutedInstType::MemWrite     29378977      3.08%    100.00% # Class of executed instruction. (Count)
system.cpu.exec_context.thread_0.statExecutedInstType::FloatMemRead         7406      0.00%    100.00% # Class of executed instruction. (Count)
system.cpu.exec_context.thread_0.statExecutedInstType::FloatMemWrite          147      0.00%    100.00% # Class of executed instruction. (Count)
system.cpu.exec_context.thread_0.statExecutedInstType::IprAccess            0      0.00%    100.00% # Class of executed instruction. (Count)
system.cpu.exec_context.thread_0.statExecutedInstType::InstPrefetch            0      0.00%    100.00% # Class of executed instruction. (Count)
system.cpu.exec_context.thread_0.statExecutedInstType::total    954581036                       # Class of executed instruction. (Count)
system.cpu.icache.demandHits::cpu.inst      544016588                       # number of demand (read+write) hits (Count)
system.cpu.icache.demandHits::total         544016588                       # number of demand (read+write) hits (Count)
system.cpu.icache.overallHits::cpu.inst     544016588                       # number of overall hits (Count)
system.cpu.icache.overallHits::total        544016588                       # number of overall hits (Count)
system.cpu.icache.demandMisses::cpu.inst      2766569                       # number of demand (read+write) misses (Count)
system.cpu.icache.demandMisses::total         2766569                       # number of demand (read+write) misses (Count)
system.cpu.icache.overallMisses::cpu.inst      2766569                       # number of overall misses (Count)
system.cpu.icache.overallMisses::total        2766569                       # number of overall misses (Count)
system.cpu.icache.demandAccesses::cpu.inst    546783157                       # number of demand (read+write) accesses (Count)
system.cpu.icache.demandAccesses::total     546783157                       # number of demand (read+write) accesses (Count)
system.cpu.icache.overallAccesses::cpu.inst    546783157                       # number of overall (read+write) accesses (Count)
system.cpu.icache.overallAccesses::total    546783157                       # number of overall (read+write) accesses (Count)
system.cpu.icache.demandMissRate::cpu.inst     0.005060                       # miss rate for demand accesses (Ratio)
system.cpu.icache.demandMissRate::total      0.005060                       # miss rate for demand accesses (Ratio)
system.cpu.icache.overallMissRate::cpu.inst     0.005060                       # miss rate for overall accesses (Ratio)
system.cpu.icache.overallMissRate::total     0.005060                       # miss rate for overall accesses (Ratio)
system.cpu.icache.blockedCycles::no_mshrs            0                       # number of cycles access was blocked (Cycle)
system.cpu.icache.blockedCycles::no_targets            0                       # number of cycles access was blocked (Cycle)
system.cpu.icache.blockedCauses::no_mshrs            0                       # number of times access was blocked (Count)
system.cpu.icache.blockedCauses::no_targets            0                       # number of times access was blocked (Count)
system.cpu.icache.avgBlocked::no_mshrs            nan                       # average number of cycles each access was blocked ((Cycle/Count))
system.cpu.icache.avgBlocked::no_targets          nan                       # average number of cycles each access was blocked ((Cycle/Count))
system.cpu.icache.writebacks::writebacks      2766497                       # number of writebacks (Count)
system.cpu.icache.writebacks::total           2766497                       # number of writebacks (Count)
system.cpu.icache.replacements                2766497                       # number of replacements (Count)
system.cpu.icache.ReadReq.hits::cpu.inst    544016588                       # number of ReadReq hits (Count)
system.cpu.icache.ReadReq.hits::total       544016588                       # number of ReadReq hits (Count)
system.cpu.icache.ReadReq.misses::cpu.inst      2766569                       # number of ReadReq misses (Count)
system.cpu.icache.ReadReq.misses::total       2766569                       # number of ReadReq misses (Count)
system.cpu.icache.ReadReq.accesses::cpu.inst    546783157                       # number of ReadReq accesses(hits+misses) (Count)
system.cpu.icache.ReadReq.accesses::total    546783157                       # number of ReadReq accesses(hits+misses) (Count)
system.cpu.icache.ReadReq.missRate::cpu.inst     0.005060                       # miss rate for ReadReq accesses (Ratio)
system.cpu.icache.ReadReq.missRate::total     0.005060                       # miss rate for ReadReq accesses (Ratio)
system.cpu.icache.power_state.pwrStateResidencyTicks::UNDEFINED 4948156146500                       # Cumulative time (in ticks) in various power states (Tick)
system.cpu.icache.tags.tagsInUse            63.986091                       # Average ticks per tags in use ((Tick/Count))
system.cpu.icache.tags.totalRefs            546781413                       # Total number of references to valid blocks. (Count)
system.cpu.icache.tags.sampledRefs            2766505                       # Sample count of references to valid blocks. (Count)
system.cpu.icache.tags.avgRefs             197.643385                       # Average number of references to valid blocks. ((Count/Count))
system.cpu.icache.tags.warmupTick                   0                       # The tick when the warmup percentage was hit. (Tick)
system.cpu.icache.tags.occupancies::cpu.inst    63.986091                       # Average occupied blocks per tick, per requestor ((Count/Tick))
system.cpu.icache.tags.avgOccs::cpu.inst     0.999783                       # Average percentage of cache occupancy ((Ratio/Tick))
system.cpu.icache.tags.avgOccs::total        0.999783                       # Average percentage of cache occupancy ((Ratio/Tick))
system.cpu.icache.tags.occupanciesTaskId::1024           64                       # Occupied blocks per task id (Count)
system.cpu.icache.tags.ageTaskId_1024::0           64                       # Occupied blocks per task id, per block age (Count)
system.cpu.icache.tags.ratioOccsTaskId::1024            1                       # Ratio of occupied blocks and all blocks, per task id (Ratio)
system.cpu.icache.tags.tagAccesses         1096332883                       # Number of tag accesses (Count)
system.cpu.icache.tags.dataAccesses        1096332883                       # Number of data accesses (Count)
system.cpu.icache.tags.power_state.pwrStateResidencyTicks::UNDEFINED 4948156146500                       # Cumulative time (in ticks) in various power states (Tick)
system.cpu.interrupts.clk_domain.clock           8000                       # Clock period in ticks (Tick)
system.cpu.itb_walker_cache.demandHits::cpu.mmu.itb.walker         2458                       # number of demand (read+write) hits (Count)
system.cpu.itb_walker_cache.demandHits::total         2458                       # number of demand (read+write) hits (Count)
system.cpu.itb_walker_cache.overallHits::cpu.mmu.itb.walker         2458                       # number of overall hits (Count)
system.cpu.itb_walker_cache.overallHits::total         2458                       # number of overall hits (Count)
system.cpu.itb_walker_cache.demandMisses::cpu.mmu.itb.walker         4527                       # number of demand (read+write) misses (Count)
system.cpu.itb_walker_cache.demandMisses::total         4527                       # number of demand (read+write) misses (Count)
system.cpu.itb_walker_cache.overallMisses::cpu.mmu.itb.walker         4527                       # number of overall misses (Count)
system.cpu.itb_walker_cache.overallMisses::total         4527                       # number of overall misses (Count)
system.cpu.itb_walker_cache.demandAccesses::cpu.mmu.itb.walker         6985                       # number of demand (read+write) accesses (Count)
system.cpu.itb_walker_cache.demandAccesses::total         6985                       # number of demand (read+write) accesses (Count)
system.cpu.itb_walker_cache.overallAccesses::cpu.mmu.itb.walker         6985                       # number of overall (read+write) accesses (Count)
system.cpu.itb_walker_cache.overallAccesses::total         6985                       # number of overall (read+write) accesses (Count)
system.cpu.itb_walker_cache.demandMissRate::cpu.mmu.itb.walker     0.648103                       # miss rate for demand accesses (Ratio)
system.cpu.itb_walker_cache.demandMissRate::total     0.648103                       # miss rate for demand accesses (Ratio)
system.cpu.itb_walker_cache.overallMissRate::cpu.mmu.itb.walker     0.648103                       # miss rate for overall accesses (Ratio)
system.cpu.itb_walker_cache.overallMissRate::total     0.648103                       # miss rate for overall accesses (Ratio)
system.cpu.itb_walker_cache.blockedCycles::no_mshrs            0                       # number of cycles access was blocked (Cycle)
system.cpu.itb_walker_cache.blockedCycles::no_targets            0                       # number of cycles access was blocked (Cycle)
system.cpu.itb_walker_cache.blockedCauses::no_mshrs            0                       # number of times access was blocked (Count)
system.cpu.itb_walker_cache.blockedCauses::no_targets            0                       # number of times access was blocked (Count)
system.cpu.itb_walker_cache.avgBlocked::no_mshrs          nan                       # average number of cycles each access was blocked ((Cycle/Count))
system.cpu.itb_walker_cache.avgBlocked::no_targets          nan                       # average number of cycles each access was blocked ((Cycle/Count))
system.cpu.itb_walker_cache.writebacks::writebacks          410                       # number of writebacks (Count)
system.cpu.itb_walker_cache.writebacks::total          410                       # number of writebacks (Count)
system.cpu.itb_walker_cache.replacements         3796                       # number of replacements (Count)
system.cpu.itb_walker_cache.ReadReq.hits::cpu.mmu.itb.walker         2456                       # number of ReadReq hits (Count)
system.cpu.itb_walker_cache.ReadReq.hits::total         2456                       # number of ReadReq hits (Count)
system.cpu.itb_walker_cache.ReadReq.misses::cpu.mmu.itb.walker         4527                       # number of ReadReq misses (Count)
system.cpu.itb_walker_cache.ReadReq.misses::total         4527                       # number of ReadReq misses (Count)
system.cpu.itb_walker_cache.ReadReq.accesses::cpu.mmu.itb.walker         6983                       # number of ReadReq accesses(hits+misses) (Count)
system.cpu.itb_walker_cache.ReadReq.accesses::total         6983                       # number of ReadReq accesses(hits+misses) (Count)
system.cpu.itb_walker_cache.ReadReq.missRate::cpu.mmu.itb.walker     0.648289                       # miss rate for ReadReq accesses (Ratio)
system.cpu.itb_walker_cache.ReadReq.missRate::total     0.648289                       # miss rate for ReadReq accesses (Ratio)
system.cpu.itb_walker_cache.WriteReq.hits::cpu.mmu.itb.walker            2                       # number of WriteReq hits (Count)
system.cpu.itb_walker_cache.WriteReq.hits::total            2                       # number of WriteReq hits (Count)
system.cpu.itb_walker_cache.WriteReq.accesses::cpu.mmu.itb.walker            2                       # number of WriteReq accesses(hits+misses) (Count)
system.cpu.itb_walker_cache.WriteReq.accesses::total            2                       # number of WriteReq accesses(hits+misses) (Count)
system.cpu.itb_walker_cache.power_state.pwrStateResidencyTicks::UNDEFINED 4948156146500                       # Cumulative time (in ticks) in various power states (Tick)
system.cpu.itb_walker_cache.tags.tagsInUse     4.011479                       # Average ticks per tags in use ((Tick/Count))
system.cpu.itb_walker_cache.tags.totalRefs         6917                       # Total number of references to valid blocks. (Count)
system.cpu.itb_walker_cache.tags.sampledRefs         4515                       # Sample count of references to valid blocks. (Count)
system.cpu.itb_walker_cache.tags.avgRefs     1.532004                       # Average number of references to valid blocks. ((Count/Count))
system.cpu.itb_walker_cache.tags.warmupTick            0                       # The tick when the warmup percentage was hit. (Tick)
system.cpu.itb_walker_cache.tags.occupancies::cpu.mmu.itb.walker     4.011479                       # Average occupied blocks per tick, per requestor ((Count/Tick))
system.cpu.itb_walker_cache.tags.avgOccs::cpu.mmu.itb.walker     0.250717                       # Average percentage of cache occupancy ((Ratio/Tick))
system.cpu.itb_walker_cache.tags.avgOccs::total     0.250717                       # Average percentage of cache occupancy ((Ratio/Tick))
system.cpu.itb_walker_cache.tags.occupanciesTaskId::1024           12                       # Occupied blocks per task id (Count)
system.cpu.itb_walker_cache.tags.ageTaskId_1024::0            4                       # Occupied blocks per task id, per block age (Count)
system.cpu.itb_walker_cache.tags.ageTaskId_1024::1            4                       # Occupied blocks per task id, per block age (Count)
system.cpu.itb_walker_cache.tags.ageTaskId_1024::2            2                       # Occupied blocks per task id, per block age (Count)
system.cpu.itb_walker_cache.tags.ageTaskId_1024::3            2                       # Occupied blocks per task id, per block age (Count)
system.cpu.itb_walker_cache.tags.ratioOccsTaskId::1024     0.750000                       # Ratio of occupied blocks and all blocks, per task id (Ratio)
system.cpu.itb_walker_cache.tags.tagAccesses        18497                       # Number of tag accesses (Count)
system.cpu.itb_walker_cache.tags.dataAccesses        18497                       # Number of data accesses (Count)
system.cpu.itb_walker_cache.tags.power_state.pwrStateResidencyTicks::UNDEFINED 4948156146500                       # Cumulative time (in ticks) in various power states (Tick)
system.cpu.mmu.dtb.rdAccesses               107651152                       # TLB accesses on read requests (Count)
system.cpu.mmu.dtb.wrAccesses                29361306                       # TLB accesses on write requests (Count)
system.cpu.mmu.dtb.rdMisses                      1078                       # TLB misses on read requests (Count)
system.cpu.mmu.dtb.wrMisses                      4891                       # TLB misses on write requests (Count)
system.cpu.mmu.dtb.walker.power_state.pwrStateResidencyTicks::UNDEFINED 4948156146500                       # Cumulative time (in ticks) in various power states (Tick)
system.cpu.mmu.itb.rdAccesses                       0                       # TLB accesses on read requests (Count)
system.cpu.mmu.itb.wrAccesses               546783743                       # TLB accesses on write requests (Count)
system.cpu.mmu.itb.rdMisses                         0                       # TLB misses on read requests (Count)
system.cpu.mmu.itb.wrMisses                      1760                       # TLB misses on write requests (Count)
system.cpu.mmu.itb.walker.power_state.pwrStateResidencyTicks::UNDEFINED 4948156146500                       # Cumulative time (in ticks) in various power states (Tick)
system.cpu.power_state.numTransitions           13299                       # Number of power state transitions (Count)
system.cpu.power_state.ticksClkGated::samples         6592                       # Distribution of time spent in the clock gated state (Tick)
system.cpu.power_state.ticksClkGated::mean 668818447.424909                       # Distribution of time spent in the clock gated state (Tick)
system.cpu.power_state.ticksClkGated::stdev 1480678138.459747                       # Distribution of time spent in the clock gated state (Tick)
system.cpu.power_state.ticksClkGated::1000-5e+10         6592    100.00%    100.00% # Distribution of time spent in the clock gated state (Tick)
system.cpu.power_state.ticksClkGated::min_value       159134                       # Distribution of time spent in the clock gated state (Tick)
system.cpu.power_state.ticksClkGated::max_value   3997482500                       # Distribution of time spent in the clock gated state (Tick)
system.cpu.power_state.ticksClkGated::total         6592                       # Distribution of time spent in the clock gated state (Tick)
system.cpu.power_state.pwrStateResidencyTicks::ON 539304941075                       # Cumulative time (in ticks) in various power states (Tick)
system.cpu.power_state.pwrStateResidencyTicks::CLK_GATED 4408851205425                       # Cumulative time (in ticks) in various power states (Tick)
system.cpu.thread_0.numInsts                        0                       # Number of Instructions committed (Count)
system.cpu.thread_0.numOps                          0                       # Number of Ops committed (Count)
system.cpu.thread_0.numMemRefs                      0                       # Number of Memory References (Count)
system.cpu_clk_domain.clock                       500                       # Clock period in ticks (Tick)
system.cpu_voltage_domain.voltage                   1                       # Voltage in Volts (Volt)
system.iobus.transDist::ReadReq               2920885                       # Transaction distribution (Count)
system.iobus.transDist::ReadResp              2920885                       # Transaction distribution (Count)
system.iobus.transDist::WriteReq                54999                       # Transaction distribution (Count)
system.iobus.transDist::WriteResp               54999                       # Transaction distribution (Count)
system.iobus.pktCount_system.bridge.mem_side_port::system.pc.south_bridge.cmos.pio           44                       # Packet count per connected requestor and responder (Count)
system.iobus.pktCount_system.bridge.mem_side_port::system.pc.south_bridge.dma1.pio            6                       # Packet count per connected requestor and responder (Count)
system.iobus.pktCount_system.bridge.mem_side_port::system.pc.south_bridge.ide.pio         5890                       # Packet count per connected requestor and responder (Count)
system.iobus.pktCount_system.bridge.mem_side_port::system.pc.south_bridge.keyboard.pio         1376                       # Packet count per connected requestor and responder (Count)
system.iobus.pktCount_system.bridge.mem_side_port::system.pc.south_bridge.pic1.pio           56                       # Packet count per connected requestor and responder (Count)
system.iobus.pktCount_system.bridge.mem_side_port::system.pc.south_bridge.pic2.pio           52                       # Packet count per connected requestor and responder (Count)
system.iobus.pktCount_system.bridge.mem_side_port::system.pc.south_bridge.pit.pio      5795590                       # Packet count per connected requestor and responder (Count)
system.iobus.pktCount_system.bridge.mem_side_port::system.pc.south_bridge.speaker.pio            4                       # Packet count per connected requestor and responder (Count)
system.iobus.pktCount_system.bridge.mem_side_port::system.pc.south_bridge.io_apic.pio         1438                       # Packet count per connected requestor and responder (Count)
system.iobus.pktCount_system.bridge.mem_side_port::system.pc.com_1.pio        39050                       # Packet count per connected requestor and responder (Count)
system.iobus.pktCount_system.bridge.mem_side_port::system.pc.fake_com_2.pio           12                       # Packet count per connected requestor and responder (Count)
system.iobus.pktCount_system.bridge.mem_side_port::system.pc.fake_com_3.pio           12                       # Packet count per connected requestor and responder (Count)
system.iobus.pktCount_system.bridge.mem_side_port::system.pc.fake_com_4.pio           12                       # Packet count per connected requestor and responder (Count)
system.iobus.pktCount_system.bridge.mem_side_port::system.pc.fake_floppy.pio           10                       # Packet count per connected requestor and responder (Count)
system.iobus.pktCount_system.bridge.mem_side_port::system.pc.pci_host.pio        18934                       # Packet count per connected requestor and responder (Count)
system.iobus.pktCount_system.bridge.mem_side_port::system.pc.default_bus.cpu_side_ports[0]           64                       # Packet count per connected requestor and responder (Count)
system.iobus.pktCount_system.bridge.mem_side_port::total      5862550                       # Packet count per connected requestor and responder (Count)
system.iobus.pktCount_system.pc.south_bridge.ide.dma::system.iocache.cpu_side_port        87590                       # Packet count per connected requestor and responder (Count)
system.iobus.pktCount_system.pc.south_bridge.ide.dma::total        87590                       # Packet count per connected requestor and responder (Count)
system.iobus.pktCount_system.pc.south_bridge.io_apic.int_request::system.apicbridge.cpu_side_port         1628                       # Packet count per connected requestor and responder (Count)
system.iobus.pktCount_system.pc.south_bridge.io_apic.int_request::total         1628                       # Packet count per connected requestor and responder (Count)
system.iobus.pktCount::total                  5951768                       # Packet count per connected requestor and responder (Count)
system.iobus.pktSize_system.bridge.mem_side_port::system.pc.south_bridge.cmos.pio           22                       # Cumulative packet size per connected requestor and responder (Byte)
system.iobus.pktSize_system.bridge.mem_side_port::system.pc.south_bridge.dma1.pio            3                       # Cumulative packet size per connected requestor and responder (Byte)
system.iobus.pktSize_system.bridge.mem_side_port::system.pc.south_bridge.ide.pio         3537                       # Cumulative packet size per connected requestor and responder (Byte)
system.iobus.pktSize_system.bridge.mem_side_port::system.pc.south_bridge.keyboard.pio          688                       # Cumulative packet size per connected requestor and responder (Byte)
system.iobus.pktSize_system.bridge.mem_side_port::system.pc.south_bridge.pic1.pio           28                       # Cumulative packet size per connected requestor and responder (Byte)
system.iobus.pktSize_system.bridge.mem_side_port::system.pc.south_bridge.pic2.pio           26                       # Cumulative packet size per connected requestor and responder (Byte)
system.iobus.pktSize_system.bridge.mem_side_port::system.pc.south_bridge.pit.pio      2897795                       # Cumulative packet size per connected requestor and responder (Byte)
system.iobus.pktSize_system.bridge.mem_side_port::system.pc.south_bridge.speaker.pio            2                       # Cumulative packet size per connected requestor and responder (Byte)
system.iobus.pktSize_system.bridge.mem_side_port::system.pc.south_bridge.io_apic.pio         2876                       # Cumulative packet size per connected requestor and responder (Byte)
system.iobus.pktSize_system.bridge.mem_side_port::system.pc.com_1.pio        19525                       # Cumulative packet size per connected requestor and responder (Byte)
system.iobus.pktSize_system.bridge.mem_side_port::system.pc.fake_com_2.pio            6                       # Cumulative packet size per connected requestor and responder (Byte)
system.iobus.pktSize_system.bridge.mem_side_port::system.pc.fake_com_3.pio            6                       # Cumulative packet size per connected requestor and responder (Byte)
system.iobus.pktSize_system.bridge.mem_side_port::system.pc.fake_com_4.pio            6                       # Cumulative packet size per connected requestor and responder (Byte)
system.iobus.pktSize_system.bridge.mem_side_port::system.pc.fake_floppy.pio            5                       # Cumulative packet size per connected requestor and responder (Byte)
system.iobus.pktSize_system.bridge.mem_side_port::system.pc.pci_host.pio        35715                       # Cumulative packet size per connected requestor and responder (Byte)
system.iobus.pktSize_system.bridge.mem_side_port::system.pc.default_bus.cpu_side_ports[0]           32                       # Cumulative packet size per connected requestor and responder (Byte)
system.iobus.pktSize_system.bridge.mem_side_port::total      2960272                       # Cumulative packet size per connected requestor and responder (Byte)
system.iobus.pktSize_system.pc.south_bridge.ide.dma::system.iocache.cpu_side_port      2765080                       # Cumulative packet size per connected requestor and responder (Byte)
system.iobus.pktSize_system.pc.south_bridge.ide.dma::total      2765080                       # Cumulative packet size per connected requestor and responder (Byte)
system.iobus.pktSize_system.pc.south_bridge.io_apic.int_request::system.apicbridge.cpu_side_port         3256                       # Cumulative packet size per connected requestor and responder (Byte)
system.iobus.pktSize_system.pc.south_bridge.io_apic.int_request::total         3256                       # Cumulative packet size per connected requestor and responder (Byte)
system.iobus.pktSize::total                   5728608                       # Cumulative packet size per connected requestor and responder (Byte)
system.iobus.power_state.pwrStateResidencyTicks::UNDEFINED 4948156146500                       # Cumulative time (in ticks) in various power states (Tick)
system.iocache.demandMisses::pc.south_bridge.ide        43795                       # number of demand (read+write) misses (Count)
system.iocache.demandMisses::total              43795                       # number of demand (read+write) misses (Count)
system.iocache.overallMisses::pc.south_bridge.ide        43795                       # number of overall misses (Count)
system.iocache.overallMisses::total             43795                       # number of overall misses (Count)
system.iocache.demandAccesses::pc.south_bridge.ide        43795                       # number of demand (read+write) accesses (Count)
system.iocache.demandAccesses::total            43795                       # number of demand (read+write) accesses (Count)
system.iocache.overallAccesses::pc.south_bridge.ide        43795                       # number of overall (read+write) accesses (Count)
system.iocache.overallAccesses::total           43795                       # number of overall (read+write) accesses (Count)
system.iocache.demandMissRate::pc.south_bridge.ide            1                       # miss rate for demand accesses (Ratio)
system.iocache.demandMissRate::total                1                       # miss rate for demand accesses (Ratio)
system.iocache.overallMissRate::pc.south_bridge.ide            1                       # miss rate for overall accesses (Ratio)
system.iocache.overallMissRate::total               1                       # miss rate for overall accesses (Ratio)
system.iocache.blockedCycles::no_mshrs              0                       # number of cycles access was blocked (Cycle)
system.iocache.blockedCycles::no_targets            0                       # number of cycles access was blocked (Cycle)
system.iocache.blockedCauses::no_mshrs              0                       # number of times access was blocked (Count)
system.iocache.blockedCauses::no_targets            0                       # number of times access was blocked (Count)
system.iocache.avgBlocked::no_mshrs               nan                       # average number of cycles each access was blocked ((Cycle/Count))
system.iocache.avgBlocked::no_targets             nan                       # average number of cycles each access was blocked ((Cycle/Count))
system.iocache.writebacks::writebacks           42512                       # number of writebacks (Count)
system.iocache.writebacks::total                42512                       # number of writebacks (Count)
system.iocache.replacements                     43761                       # number of replacements (Count)
system.iocache.ReadReq.misses::pc.south_bridge.ide         1251                       # number of ReadReq misses (Count)
system.iocache.ReadReq.misses::total             1251                       # number of ReadReq misses (Count)
system.iocache.ReadReq.accesses::pc.south_bridge.ide         1251                       # number of ReadReq accesses(hits+misses) (Count)
system.iocache.ReadReq.accesses::total           1251                       # number of ReadReq accesses(hits+misses) (Count)
system.iocache.ReadReq.missRate::pc.south_bridge.ide            1                       # miss rate for ReadReq accesses (Ratio)
system.iocache.ReadReq.missRate::total              1                       # miss rate for ReadReq accesses (Ratio)
system.iocache.WriteLineReq.misses::pc.south_bridge.ide        42544                       # number of WriteLineReq misses (Count)
system.iocache.WriteLineReq.misses::total        42544                       # number of WriteLineReq misses (Count)
system.iocache.WriteLineReq.accesses::pc.south_bridge.ide        42544                       # number of WriteLineReq accesses(hits+misses) (Count)
system.iocache.WriteLineReq.accesses::total        42544                       # number of WriteLineReq accesses(hits+misses) (Count)
system.iocache.WriteLineReq.missRate::pc.south_bridge.ide            1                       # miss rate for WriteLineReq accesses (Ratio)
system.iocache.WriteLineReq.missRate::total            1                       # miss rate for WriteLineReq accesses (Ratio)
system.iocache.power_state.pwrStateResidencyTicks::UNDEFINED 4948156146500                       # Cumulative time (in ticks) in various power states (Tick)
system.iocache.tags.tagsInUse                0.042351                       # Average ticks per tags in use ((Tick/Count))
system.iocache.tags.totalRefs                   43779                       # Total number of references to valid blocks. (Count)
system.iocache.tags.sampledRefs                 43779                       # Sample count of references to valid blocks. (Count)
system.iocache.tags.avgRefs                         1                       # Average number of references to valid blocks. ((Count/Count))
system.iocache.tags.warmupTick           4828836598501                       # The tick when the warmup percentage was hit. (Tick)
system.iocache.tags.occupancies::pc.south_bridge.ide     0.042351                       # Average occupied blocks per tick, per requestor ((Count/Tick))
system.iocache.tags.avgOccs::pc.south_bridge.ide     0.002647                       # Average percentage of cache occupancy ((Ratio/Tick))
system.iocache.tags.avgOccs::total           0.002647                       # Average percentage of cache occupancy ((Ratio/Tick))
system.iocache.tags.occupanciesTaskId::1023           16                       # Occupied blocks per task id (Count)
system.iocache.tags.ageTaskId_1023::2              16                       # Occupied blocks per task id, per block age (Count)
system.iocache.tags.ratioOccsTaskId::1023            1                       # Ratio of occupied blocks and all blocks, per task id (Ratio)
system.iocache.tags.tagAccesses                394155                       # Number of tag accesses (Count)
system.iocache.tags.dataAccesses               394155                       # Number of data accesses (Count)
system.iocache.tags.power_state.pwrStateResidencyTicks::UNDEFINED 4948156146500                       # Cumulative time (in ticks) in various power states (Tick)
system.l2.demandHits::cpu.mmu.dtb.walker         1588                       # number of demand (read+write) hits (Count)
system.l2.demandHits::cpu.mmu.itb.walker         1414                       # number of demand (read+write) hits (Count)
system.l2.demandHits::cpu.inst                2705119                       # number of demand (read+write) hits (Count)
system.l2.demandHits::cpu.data                6045614                       # number of demand (read+write) hits (Count)
system.l2.demandHits::total                   8753735                       # number of demand (read+write) hits (Count)
system.l2.overallHits::cpu.mmu.dtb.walker         1588                       # number of overall hits (Count)
system.l2.overallHits::cpu.mmu.itb.walker         1414                       # number of overall hits (Count)
system.l2.overallHits::cpu.inst               2705119                       # number of overall hits (Count)
system.l2.overallHits::cpu.data               6045614                       # number of overall hits (Count)
system.l2.overallHits::total                  8753735                       # number of overall hits (Count)
system.l2.demandMisses::cpu.mmu.dtb.walker          109                       # number of demand (read+write) misses (Count)
system.l2.demandMisses::cpu.mmu.itb.walker           37                       # number of demand (read+write) misses (Count)
system.l2.demandMisses::cpu.inst                61031                       # number of demand (read+write) misses (Count)
system.l2.demandMisses::cpu.data               708377                       # number of demand (read+write) misses (Count)
system.l2.demandMisses::total                  769554                       # number of demand (read+write) misses (Count)
system.l2.overallMisses::cpu.mmu.dtb.walker          109                       # number of overall misses (Count)
system.l2.overallMisses::cpu.mmu.itb.walker           37                       # number of overall misses (Count)
system.l2.overallMisses::cpu.inst               61031                       # number of overall misses (Count)
system.l2.overallMisses::cpu.data              708377                       # number of overall misses (Count)
system.l2.overallMisses::total                 769554                       # number of overall misses (Count)
system.l2.demandAccesses::cpu.mmu.dtb.walker         1697                       # number of demand (read+write) accesses (Count)
system.l2.demandAccesses::cpu.mmu.itb.walker         1451                       # number of demand (read+write) accesses (Count)
system.l2.demandAccesses::cpu.inst            2766150                       # number of demand (read+write) accesses (Count)
system.l2.demandAccesses::cpu.data            6753991                       # number of demand (read+write) accesses (Count)
system.l2.demandAccesses::total               9523289                       # number of demand (read+write) accesses (Count)
system.l2.overallAccesses::cpu.mmu.dtb.walker         1697                       # number of overall (read+write) accesses (Count)
system.l2.overallAccesses::cpu.mmu.itb.walker         1451                       # number of overall (read+write) accesses (Count)
system.l2.overallAccesses::cpu.inst           2766150                       # number of overall (read+write) accesses (Count)
system.l2.overallAccesses::cpu.data           6753991                       # number of overall (read+write) accesses (Count)
system.l2.overallAccesses::total              9523289                       # number of overall (read+write) accesses (Count)
system.l2.demandMissRate::cpu.mmu.dtb.walker     0.064231                       # miss rate for demand accesses (Ratio)
system.l2.demandMissRate::cpu.mmu.itb.walker     0.025500                       # miss rate for demand accesses (Ratio)
system.l2.demandMissRate::cpu.inst           0.022064                       # miss rate for demand accesses (Ratio)
system.l2.demandMissRate::cpu.data           0.104883                       # miss rate for demand accesses (Ratio)
system.l2.demandMissRate::total              0.080808                       # miss rate for demand accesses (Ratio)
system.l2.overallMissRate::cpu.mmu.dtb.walker     0.064231                       # miss rate for overall accesses (Ratio)
system.l2.overallMissRate::cpu.mmu.itb.walker     0.025500                       # miss rate for overall accesses (Ratio)
system.l2.overallMissRate::cpu.inst          0.022064                       # miss rate for overall accesses (Ratio)
system.l2.overallMissRate::cpu.data          0.104883                       # miss rate for overall accesses (Ratio)
system.l2.overallMissRate::total             0.080808                       # miss rate for overall accesses (Ratio)
system.l2.blockedCycles::no_mshrs                   0                       # number of cycles access was blocked (Cycle)
system.l2.blockedCycles::no_targets                 0                       # number of cycles access was blocked (Cycle)
system.l2.blockedCauses::no_mshrs                   0                       # number of times access was blocked (Count)
system.l2.blockedCauses::no_targets                 0                       # number of times access was blocked (Count)
system.l2.avgBlocked::no_mshrs                    nan                       # average number of cycles each access was blocked ((Cycle/Count))
system.l2.avgBlocked::no_targets                  nan                       # average number of cycles each access was blocked ((Cycle/Count))
system.l2.writebacks::writebacks               592988                       # number of writebacks (Count)
system.l2.writebacks::total                    592988                       # number of writebacks (Count)
system.l2.replacements                         767667                       # number of replacements (Count)
system.l2.ReadCleanReq.hits::cpu.inst         2705119                       # number of ReadCleanReq hits (Count)
system.l2.ReadCleanReq.hits::total            2705119                       # number of ReadCleanReq hits (Count)
system.l2.ReadCleanReq.misses::cpu.inst         61031                       # number of ReadCleanReq misses (Count)
system.l2.ReadCleanReq.misses::total            61031                       # number of ReadCleanReq misses (Count)
system.l2.ReadCleanReq.accesses::cpu.inst      2766150                       # number of ReadCleanReq accesses(hits+misses) (Count)
system.l2.ReadCleanReq.accesses::total        2766150                       # number of ReadCleanReq accesses(hits+misses) (Count)
system.l2.ReadCleanReq.missRate::cpu.inst     0.022064                       # miss rate for ReadCleanReq accesses (Ratio)
system.l2.ReadCleanReq.missRate::total       0.022064                       # miss rate for ReadCleanReq accesses (Ratio)
system.l2.ReadExReq.hits::cpu.data             132952                       # number of ReadExReq hits (Count)
system.l2.ReadExReq.hits::total                132952                       # number of ReadExReq hits (Count)
system.l2.ReadExReq.misses::cpu.data           432575                       # number of ReadExReq misses (Count)
system.l2.ReadExReq.misses::total              432575                       # number of ReadExReq misses (Count)
system.l2.ReadExReq.accesses::cpu.data         565527                       # number of ReadExReq accesses(hits+misses) (Count)
system.l2.ReadExReq.accesses::total            565527                       # number of ReadExReq accesses(hits+misses) (Count)
system.l2.ReadExReq.missRate::cpu.data       0.764906                       # miss rate for ReadExReq accesses (Ratio)
system.l2.ReadExReq.missRate::total          0.764906                       # miss rate for ReadExReq accesses (Ratio)
system.l2.ReadSharedReq.hits::cpu.mmu.dtb.walker         1588                       # number of ReadSharedReq hits (Count)
system.l2.ReadSharedReq.hits::cpu.mmu.itb.walker         1414                       # number of ReadSharedReq hits (Count)
system.l2.ReadSharedReq.hits::cpu.data        5912662                       # number of ReadSharedReq hits (Count)
system.l2.ReadSharedReq.hits::total           5915664                       # number of ReadSharedReq hits (Count)
system.l2.ReadSharedReq.misses::cpu.mmu.dtb.walker          109                       # number of ReadSharedReq misses (Count)
system.l2.ReadSharedReq.misses::cpu.mmu.itb.walker           37                       # number of ReadSharedReq misses (Count)
system.l2.ReadSharedReq.misses::cpu.data       275802                       # number of ReadSharedReq misses (Count)
system.l2.ReadSharedReq.misses::total          275948                       # number of ReadSharedReq misses (Count)
system.l2.ReadSharedReq.accesses::cpu.mmu.dtb.walker         1697                       # number of ReadSharedReq accesses(hits+misses) (Count)
system.l2.ReadSharedReq.accesses::cpu.mmu.itb.walker         1451                       # number of ReadSharedReq accesses(hits+misses) (Count)
system.l2.ReadSharedReq.accesses::cpu.data      6188464                       # number of ReadSharedReq accesses(hits+misses) (Count)
system.l2.ReadSharedReq.accesses::total       6191612                       # number of ReadSharedReq accesses(hits+misses) (Count)
system.l2.ReadSharedReq.missRate::cpu.mmu.dtb.walker     0.064231                       # miss rate for ReadSharedReq accesses (Ratio)
system.l2.ReadSharedReq.missRate::cpu.mmu.itb.walker     0.025500                       # miss rate for ReadSharedReq accesses (Ratio)
system.l2.ReadSharedReq.missRate::cpu.data     0.044567                       # miss rate for ReadSharedReq accesses (Ratio)
system.l2.ReadSharedReq.missRate::total      0.044568                       # miss rate for ReadSharedReq accesses (Ratio)
system.l2.UpgradeReq.hits::cpu.data              3293                       # number of UpgradeReq hits (Count)
system.l2.UpgradeReq.hits::total                 3293                       # number of UpgradeReq hits (Count)
system.l2.UpgradeReq.misses::cpu.data             111                       # number of UpgradeReq misses (Count)
system.l2.UpgradeReq.misses::total                111                       # number of UpgradeReq misses (Count)
system.l2.UpgradeReq.accesses::cpu.data          3404                       # number of UpgradeReq accesses(hits+misses) (Count)
system.l2.UpgradeReq.accesses::total             3404                       # number of UpgradeReq accesses(hits+misses) (Count)
system.l2.UpgradeReq.missRate::cpu.data      0.032609                       # miss rate for UpgradeReq accesses (Ratio)
system.l2.UpgradeReq.missRate::total         0.032609                       # miss rate for UpgradeReq accesses (Ratio)
system.l2.WritebackClean.hits::writebacks      2766067                       # number of WritebackClean hits (Count)
system.l2.WritebackClean.hits::total          2766067                       # number of WritebackClean hits (Count)
system.l2.WritebackClean.accesses::writebacks      2766067                       # number of WritebackClean accesses(hits+misses) (Count)
system.l2.WritebackClean.accesses::total      2766067                       # number of WritebackClean accesses(hits+misses) (Count)
system.l2.WritebackDirty.hits::writebacks      6197295                       # number of WritebackDirty hits (Count)
system.l2.WritebackDirty.hits::total          6197295                       # number of WritebackDirty hits (Count)
system.l2.WritebackDirty.accesses::writebacks      6197295                       # number of WritebackDirty accesses(hits+misses) (Count)
system.l2.WritebackDirty.accesses::total      6197295                       # number of WritebackDirty accesses(hits+misses) (Count)
system.l2.power_state.pwrStateResidencyTicks::UNDEFINED 4948156146500                       # Cumulative time (in ticks) in various power states (Tick)
system.l2.tags.tagsInUse                  8191.065477                       # Average ticks per tags in use ((Tick/Count))
system.l2.tags.totalRefs                     18564262                       # Total number of references to valid blocks. (Count)
system.l2.tags.sampledRefs                     768746                       # Sample count of references to valid blocks. (Count)
system.l2.tags.avgRefs                      24.148759                       # Average number of references to valid blocks. ((Count/Count))
system.l2.tags.warmupTick                           0                       # The tick when the warmup percentage was hit. (Tick)
system.l2.tags.occupancies::writebacks     124.197132                       # Average occupied blocks per tick, per requestor ((Count/Tick))
system.l2.tags.occupancies::cpu.mmu.dtb.walker     0.897698                       # Average occupied blocks per tick, per requestor ((Count/Tick))
system.l2.tags.occupancies::cpu.mmu.itb.walker     0.005962                       # Average occupied blocks per tick, per requestor ((Count/Tick))
system.l2.tags.occupancies::cpu.inst      1451.643706                       # Average occupied blocks per tick, per requestor ((Count/Tick))
system.l2.tags.occupancies::cpu.data      6614.320979                       # Average occupied blocks per tick, per requestor ((Count/Tick))
system.l2.tags.avgOccs::writebacks           0.015161                       # Average percentage of cache occupancy ((Ratio/Tick))
system.l2.tags.avgOccs::cpu.mmu.dtb.walker     0.000110                       # Average percentage of cache occupancy ((Ratio/Tick))
system.l2.tags.avgOccs::cpu.mmu.itb.walker     0.000001                       # Average percentage of cache occupancy ((Ratio/Tick))
system.l2.tags.avgOccs::cpu.inst             0.177203                       # Average percentage of cache occupancy ((Ratio/Tick))
system.l2.tags.avgOccs::cpu.data             0.807412                       # Average percentage of cache occupancy ((Ratio/Tick))
system.l2.tags.avgOccs::total                0.999886                       # Average percentage of cache occupancy ((Ratio/Tick))
system.l2.tags.occupanciesTaskId::1024           8190                       # Occupied blocks per task id (Count)
system.l2.tags.ageTaskId_1024::0                   46                       # Occupied blocks per task id, per block age (Count)
system.l2.tags.ageTaskId_1024::1                  472                       # Occupied blocks per task id, per block age (Count)
system.l2.tags.ageTaskId_1024::2                 3071                       # Occupied blocks per task id, per block age (Count)
system.l2.tags.ageTaskId_1024::3                 4527                       # Occupied blocks per task id, per block age (Count)
system.l2.tags.ageTaskId_1024::4                   74                       # Occupied blocks per task id, per block age (Count)
system.l2.tags.ratioOccsTaskId::1024         0.999756                       # Ratio of occupied blocks and all blocks, per task id (Ratio)
system.l2.tags.tagAccesses                   76967548                       # Number of tag accesses (Count)
system.l2.tags.dataAccesses                  76967548                       # Number of data accesses (Count)
system.l2.tags.power_state.pwrStateResidencyTicks::UNDEFINED 4948156146500                       # Cumulative time (in ticks) in various power states (Tick)
system.mem_ctrls.priorityMinLatency      0.000000000000                       # per QoS priority minimum request to response latency (Second)
system.mem_ctrls.priorityMaxLatency      0.000000000000                       # per QoS priority maximum request to response latency (Second)
system.mem_ctrls.numReadWriteTurnArounds            0                       # Number of turnarounds from READ to WRITE (Count)
system.mem_ctrls.numWriteReadTurnArounds            0                       # Number of turnarounds from WRITE to READ (Count)
system.mem_ctrls.numStayReadState                   0                       # Number of times bus staying in READ state (Count)
system.mem_ctrls.numStayWriteState                  0                       # Number of times bus staying in WRITE state (Count)
system.mem_ctrls.readReqs                           0                       # Number of read requests accepted (Count)
system.mem_ctrls.writeReqs                          0                       # Number of write requests accepted (Count)
system.mem_ctrls.readBursts                         0                       # Number of controller read bursts, including those serviced by the write queue (Count)
system.mem_ctrls.writeBursts                        0                       # Number of controller write bursts, including those merged in the write queue (Count)
system.mem_ctrls.servicedByWrQ                      0                       # Number of controller read bursts serviced by the write queue (Count)
system.mem_ctrls.mergedWrBursts                     0                       # Number of controller write bursts merged with an existing one (Count)
system.mem_ctrls.neitherReadNorWriteReqs            0                       # Number of requests that are neither read nor write (Count)
system.mem_ctrls.avgRdQLen                       0.00                       # Average read queue length when enqueuing ((Count/Tick))
system.mem_ctrls.avgWrQLen                       0.00                       # Average write queue length when enqueuing ((Count/Tick))
system.mem_ctrls.numRdRetry                         0                       # Number of times read queue was full causing retry (Count)
system.mem_ctrls.numWrRetry                         0                       # Number of times write queue was full causing retry (Count)
system.mem_ctrls.readPktSize::0                     0                       # Read request sizes (log2) (Count)
system.mem_ctrls.readPktSize::1                     0                       # Read request sizes (log2) (Count)
system.mem_ctrls.readPktSize::2                     0                       # Read request sizes (log2) (Count)
[...]
system.switch_cpus.exec_context.thread_0.numOps            0                       # Number of ops (including micro ops) committed (Count)
system.switch_cpus.exec_context.thread_0.numIntAluAccesses            0                       # Number of integer alu accesses (Count)
system.switch_cpus.exec_context.thread_0.numFpAluAccesses            0                       # Number of float alu accesses (Count)
system.switch_cpus.exec_context.thread_0.numVecAluAccesses            0                       # Number of vector alu accesses (Count)
system.switch_cpus.exec_context.thread_0.numCallsReturns            0                       # Number of times a function call or return occured (Count)
system.switch_cpus.exec_context.thread_0.numCondCtrlInsts            0                       # Number of instructions that are conditional controls (Count)
system.switch_cpus.exec_context.thread_0.numIntInsts            0                       # Number of integer instructions (Count)
system.switch_cpus.exec_context.thread_0.numFpInsts            0                       # Number of float instructions (Count)
system.switch_cpus.exec_context.thread_0.numVecInsts            0                       # Number of vector instructions (Count)
system.switch_cpus.exec_context.thread_0.numIntRegReads            0                       # Number of times the integer registers were read (Count)
system.switch_cpus.exec_context.thread_0.numIntRegWrites            0                       # Number of times the integer registers were written (Count)
system.switch_cpus.exec_context.thread_0.numFpRegReads            0                       # Number of times the floating registers were read (Count)
system.switch_cpus.exec_context.thread_0.numFpRegWrites            0                       # Number of times the floating registers were written (Count)
system.switch_cpus.exec_context.thread_0.numVecRegReads            0                       # Number of times the vector registers were read (Count)
system.switch_cpus.exec_context.thread_0.numVecRegWrites            0                       # Number of times the vector registers were written (Count)
system.switch_cpus.exec_context.thread_0.numVecPredRegReads            0                       # Number of times the predicate registers were read (Count)
system.switch_cpus.exec_context.thread_0.numVecPredRegWrites            0                       # Number of times the predicate registers were written (Count)
system.switch_cpus.exec_context.thread_0.numMiscRegReads            0                       # Number of times the Misc registers were read (Count)
system.switch_cpus.exec_context.thread_0.numMiscRegWrites            0                       # Number of times the Misc registers were written (Count)
system.switch_cpus.exec_context.thread_0.numMemRefs            0                       # Number of memory refs (Count)
system.switch_cpus.exec_context.thread_0.numLoadInsts            0                       # Number of load instructions (Count)
system.switch_cpus.exec_context.thread_0.numStoreInsts            0                       # Number of store instructions (Count)
system.switch_cpus.exec_context.thread_0.numIdleCycles            0                       # Number of idle cycles (Cycle)
system.switch_cpus.exec_context.thread_0.numBusyCycles            0                       # Number of busy cycles (Cycle)
system.switch_cpus.exec_context.thread_0.notIdleFraction            0                       # Percentage of non-idle cycles (Ratio)
system.switch_cpus.exec_context.thread_0.idleFraction            1                       # Percentage of idle cycles (Ratio)
system.switch_cpus.exec_context.thread_0.statExecutedInstType::No_OpClass            0                       # Class of executed instruction. (Count)
system.switch_cpus.exec_context.thread_0.statExecutedInstType::IntAlu            0                       # Class of executed instruction. (Count)
system.switch_cpus.exec_context.thread_0.statExecutedInstType::IntMult            0                       # Class of executed instruction. (Count)
system.switch_cpus.exec_context.thread_0.statExecutedInstType::IntDiv            0                       # Class of executed instruction. (Count)
system.switch_cpus.exec_context.thread_0.statExecutedInstType::FloatAdd            0                       # Class of executed instruction. (Count)
system.switch_cpus.exec_context.thread_0.statExecutedInstType::FloatCmp            0                       # Class of executed instruction. (Count)
system.switch_cpus.exec_context.thread_0.statExecutedInstType::FloatCvt            0                       # Class of executed instruction. (Count)
system.switch_cpus.exec_context.thread_0.statExecutedInstType::FloatMult            0                       # Class of executed instruction. (Count)
system.switch_cpus.exec_context.thread_0.statExecutedInstType::FloatMultAcc            0                       # Class of executed instruction. (Count)
system.switch_cpus.exec_context.thread_0.statExecutedInstType::FloatDiv            0                       # Class of executed instruction. (Count)
system.switch_cpus.exec_context.thread_0.statExecutedInstType::FloatMisc            0                       # Class of executed instruction. (Count)
system.switch_cpus.exec_context.thread_0.statExecutedInstType::FloatSqrt            0                       # Class of executed instruction. (Count)
system.switch_cpus.exec_context.thread_0.statExecutedInstType::SimdAdd            0                       # Class of executed instruction. (Count)
system.switch_cpus.exec_context.thread_0.statExecutedInstType::SimdAddAcc            0                       # Class of executed instruction. (Count)
system.switch_cpus.exec_context.thread_0.statExecutedInstType::SimdAlu            0                       # Class of executed instruction. (Count)
system.switch_cpus.exec_context.thread_0.statExecutedInstType::SimdCmp            0                       # Class of executed instruction. (Count)
system.switch_cpus.exec_context.thread_0.statExecutedInstType::SimdCvt            0                       # Class of executed instruction. (Count)
system.switch_cpus.exec_context.thread_0.statExecutedInstType::SimdMisc            0                       # Class of executed instruction. (Count)
system.switch_cpus.exec_context.thread_0.statExecutedInstType::SimdMult            0                       # Class of executed instruction. (Count)
system.switch_cpus.exec_context.thread_0.statExecutedInstType::SimdMultAcc            0                       # Class of executed instruction. (Count)
system.switch_cpus.exec_context.thread_0.statExecutedInstType::SimdShift            0                       # Class of executed instruction. (Count)
system.switch_cpus.exec_context.thread_0.statExecutedInstType::SimdShiftAcc            0                       # Class of executed instruction. (Count)
system.switch_cpus.exec_context.thread_0.statExecutedInstType::SimdDiv            0                       # Class of executed instruction. (Count)
system.switch_cpus.exec_context.thread_0.statExecutedInstType::SimdSqrt            0                       # Class of executed instruction. (Count)
system.switch_cpus.exec_context.thread_0.statExecutedInstType::SimdFloatAdd            0                       # Class of executed instruction. (Count)
system.switch_cpus.exec_context.thread_0.statExecutedInstType::SimdFloatAlu            0                       # Class of executed instruction. (Count)
system.switch_cpus.exec_context.thread_0.statExecutedInstType::SimdFloatCmp            0                       # Class of executed instruction. (Count)
system.switch_cpus.exec_context.thread_0.statExecutedInstType::SimdFloatCvt            0                       # Class of executed instruction. (Count)
system.switch_cpus.exec_context.thread_0.statExecutedInstType::SimdFloatDiv            0                       # Class of executed instruction. (Count)
system.switch_cpus.exec_context.thread_0.statExecutedInstType::SimdFloatMisc            0                       # Class of executed instruction. (Count)
system.switch_cpus.exec_context.thread_0.statExecutedInstType::SimdFloatMult            0                       # Class of executed instruction. (Count)
system.switch_cpus.exec_context.thread_0.statExecutedInstType::SimdFloatMultAcc            0                       # Class of executed instruction. (Count)
system.switch_cpus.exec_context.thread_0.statExecutedInstType::SimdFloatSqrt            0                       # Class of executed instruction. (Count)
system.switch_cpus.exec_context.thread_0.statExecutedInstType::SimdReduceAdd            0                       # Class of executed instruction. (Count)
system.switch_cpus.exec_context.thread_0.statExecutedInstType::SimdReduceAlu            0                       # Class of executed instruction. (Count)
system.switch_cpus.exec_context.thread_0.statExecutedInstType::SimdReduceCmp            0                       # Class of executed instruction. (Count)
system.switch_cpus.exec_context.thread_0.statExecutedInstType::SimdFloatReduceAdd            0                       # Class of executed instruction. (Count)
system.switch_cpus.exec_context.thread_0.statExecutedInstType::SimdFloatReduceCmp            0                       # Class of executed instruction. (Count)
system.switch_cpus.exec_context.thread_0.statExecutedInstType::SimdAes            0                       # Class of executed instruction. (Count)
system.switch_cpus.exec_context.thread_0.statExecutedInstType::SimdAesMix            0                       # Class of executed instruction. (Count)
system.switch_cpus.exec_context.thread_0.statExecutedInstType::SimdSha1Hash            0                       # Class of executed instruction. (Count)
system.switch_cpus.exec_context.thread_0.statExecutedInstType::SimdSha1Hash2            0                       # Class of executed instruction. (Count)
system.switch_cpus.exec_context.thread_0.statExecutedInstType::SimdSha256Hash            0                       # Class of executed instruction. (Count)
system.switch_cpus.exec_context.thread_0.statExecutedInstType::SimdSha256Hash2            0                       # Class of executed instruction. (Count)
system.switch_cpus.exec_context.thread_0.statExecutedInstType::SimdShaSigma2            0                       # Class of executed instruction. (Count)
system.switch_cpus.exec_context.thread_0.statExecutedInstType::SimdShaSigma3            0                       # Class of executed instruction. (Count)
system.switch_cpus.exec_context.thread_0.statExecutedInstType::SimdPredAlu            0                       # Class of executed instruction. (Count)
system.switch_cpus.exec_context.thread_0.statExecutedInstType::MemRead            0                       # Class of executed instruction. (Count)
system.switch_cpus.exec_context.thread_0.statExecutedInstType::MemWrite            0                       # Class of executed instruction. (Count)
system.switch_cpus.exec_context.thread_0.statExecutedInstType::FloatMemRead            0                       # Class of executed instruction. (Count)
system.switch_cpus.exec_context.thread_0.statExecutedInstType::FloatMemWrite            0                       # Class of executed instruction. (Count)
system.switch_cpus.exec_context.thread_0.statExecutedInstType::IprAccess            0                       # Class of executed instruction. (Count)
system.switch_cpus.exec_context.thread_0.statExecutedInstType::InstPrefetch            0                       # Class of executed instruction. (Count)
system.switch_cpus.exec_context.thread_0.statExecutedInstType::total            0                       # Class of executed instruction. (Count)
system.switch_cpus.mmu.dtb.rdAccesses               0                       # TLB accesses on read requests (Count)
system.switch_cpus.mmu.dtb.wrAccesses               0                       # TLB accesses on write requests (Count)
system.switch_cpus.mmu.dtb.rdMisses                 0                       # TLB misses on read requests (Count)
system.switch_cpus.mmu.dtb.wrMisses                 0                       # TLB misses on write requests (Count)
system.switch_cpus.mmu.dtb.walker.power_state.pwrStateResidencyTicks::UNDEFINED 4948156146500                       # Cumulative time (in ticks) in various power states (Tick)
system.switch_cpus.mmu.itb.rdAccesses               0                       # TLB accesses on read requests (Count)
system.switch_cpus.mmu.itb.wrAccesses               0                       # TLB accesses on write requests (Count)
system.switch_cpus.mmu.itb.rdMisses                 0                       # TLB misses on read requests (Count)
system.switch_cpus.mmu.itb.wrMisses                 0                       # TLB misses on write requests (Count)
system.switch_cpus.mmu.itb.walker.power_state.pwrStateResidencyTicks::UNDEFINED 4948156146500                       # Cumulative time (in ticks) in various power states (Tick)
system.switch_cpus.power_state.pwrStateResidencyTicks::OFF 4948156146500                       # Cumulative time (in ticks) in various power states (Tick)
system.switch_cpus.thread_0.numInsts                0                       # Number of Instructions committed (Count)
system.switch_cpus.thread_0.numOps                  0                       # Number of Ops committed (Count)
system.switch_cpus.thread_0.numMemRefs              0                       # Number of Memory References (Count)
system.tol2bus.transDist::ReadReq             2919719                       # Transaction distribution (Count)
system.tol2bus.transDist::ReadResp           11891825                       # Transaction distribution (Count)
system.tol2bus.transDist::WriteReq              13617                       # Transaction distribution (Count)
system.tol2bus.transDist::WriteResp             13617                       # Transaction distribution (Count)
system.tol2bus.transDist::WritebackDirty      6197295                       # Transaction distribution (Count)
system.tol2bus.transDist::WritebackClean      2766497                       # Transaction distribution (Count)
system.tol2bus.transDist::CleanEvict           568993                       # Transaction distribution (Count)
system.tol2bus.transDist::UpgradeReq             3627                       # Transaction distribution (Count)
system.tol2bus.transDist::UpgradeResp            3627                       # Transaction distribution (Count)
system.tol2bus.transDist::ReadExReq            565527                       # Transaction distribution (Count)
system.tol2bus.transDist::ReadExResp           565527                       # Transaction distribution (Count)
system.tol2bus.transDist::ReadCleanReq        2766569                       # Transaction distribution (Count)
system.tol2bus.transDist::ReadSharedReq       6205537                       # Transaction distribution (Count)
system.tol2bus.pktCount_system.cpu.icache.mem_side_port::system.l2.cpu_side_port      8299635                       # Packet count per connected requestor and responder (Count)
system.tol2bus.pktCount_system.cpu.dcache.mem_side_port::system.l2.cpu_side_port     26135752                       # Packet count per connected requestor and responder (Count)
system.tol2bus.pktCount_system.cpu.itb_walker_cache.mem_side_port::system.l2.cpu_side_port        12850                       # Packet count per connected requestor and responder (Count)
system.tol2bus.pktCount_system.cpu.dtb_walker_cache.mem_side_port::system.l2.cpu_side_port        33740                       # Packet count per connected requestor and responder (Count)
system.tol2bus.pktCount::total               34481977                       # Packet count per connected requestor and responder (Count)
system.tol2bus.pktSize_system.cpu.icache.mem_side_port::system.l2.cpu_side_port    354116224                       # Cumulative packet size per connected requestor and responder (Byte)
system.tol2bus.pktSize_system.cpu.dcache.mem_side_port::system.l2.cpu_side_port    831820740                       # Cumulative packet size per connected requestor and responder (Byte)
system.tol2bus.pktSize_system.cpu.itb_walker_cache.mem_side_port::system.l2.cpu_side_port       315968                       # Cumulative packet size per connected requestor and responder (Byte)
system.tol2bus.pktSize_system.cpu.dtb_walker_cache.mem_side_port::system.l2.cpu_side_port       806784                       # Cumulative packet size per connected requestor and responder (Byte)
system.tol2bus.pktSize::total              1187059716                       # Cumulative packet size per connected requestor and responder (Byte)
system.tol2bus.snoops                          770271                       # Total snoops (Count)
system.tol2bus.snoopTraffic                  37951232                       # Total snoop traffic (Byte)
system.tol2bus.snoopFanout::samples          13244042                       # Request fanout histogram (Count)
system.tol2bus.snoopFanout::mean             0.002932                       # Request fanout histogram (Count)
system.tol2bus.snoopFanout::stdev            0.058185                       # Request fanout histogram (Count)
system.tol2bus.snoopFanout::underflows              0      0.00%      0.00% # Request fanout histogram (Count)
system.tol2bus.snoopFanout::0                13208260     99.73%     99.73% # Request fanout histogram (Count)
system.tol2bus.snoopFanout::1                   32727      0.25%     99.98% # Request fanout histogram (Count)
system.tol2bus.snoopFanout::2                    3054      0.02%    100.00% # Request fanout histogram (Count)
system.tol2bus.snoopFanout::3                       1      0.00%    100.00% # Request fanout histogram (Count)
system.tol2bus.snoopFanout::4                       0      0.00%    100.00% # Request fanout histogram (Count)
system.tol2bus.snoopFanout::overflows               0      0.00%    100.00% # Request fanout histogram (Count)
system.tol2bus.snoopFanout::min_value               0                       # Request fanout histogram (Count)
system.tol2bus.snoopFanout::max_value               3                       # Request fanout histogram (Count)
system.tol2bus.snoopFanout::total            13244042                       # Request fanout histogram (Count)
system.tol2bus.power_state.pwrStateResidencyTicks::UNDEFINED 4948156146500                       # Cumulative time (in ticks) in various power states (Tick)
system.tol2bus.snoop_filter.totRequests      19074045                       # Total number of requests made to the snoop filter. (Count)
system.tol2bus.snoop_filter.hitSingleRequests      9530324                       # Number of requests hitting in the snoop filter with a single holder of the requested data. (Count)
system.tol2bus.snoop_filter.hitMultiRequests        24046                       # Number of requests hitting in the snoop filter with multiple (>1) holders of the requested data. (Count)
system.tol2bus.snoop_filter.totSnoops           14343                       # Total number of snoops made to the snoop filter. (Count)
system.tol2bus.snoop_filter.hitSingleSnoops        14294                       # Number of snoops hitting in the snoop filter with a single holder of the requested data. (Count)
system.tol2bus.snoop_filter.hitMultiSnoops           49                       # Number of snoops hitting in the snoop filter with multiple (>1) holders of the requested data. (Count)
system.voltage_domain.voltage                       1                       # Voltage in Volts (Volt)
system.workload.inst.arm                            0                       # number of arm instructions executed (Count)
system.workload.inst.quiesce                     5537                       # number of quiesce instructions executed (Count)

---------- End Simulation Statistics   ----------

