---------- Begin Simulation Statistics ----------
simSeconds                                   0.002883                       # Number of seconds simulated (Second)
simTicks                                   2883345500                       # Number of ticks simulated (Tick)
finalTick                                4951242125000                       # Number of ticks from beginning of simulation (restored from checkpoints and never reset) (Tick)
simFreq                                  1000000000000                       # The number of ticks per simulated second ((Tick/Second))
hostSeconds                                      1.58                       # Real time elapsed on the host (Second)
hostTickRate                               1826065785                       # The number of ticks simulated per host second (ticks/s) ((Tick/Second))
hostMemory                                     977848                       # Number of bytes of host memory used (Byte)
simInsts                                    424140650                       # Number of instructions simulated (Count)
simOps                                      959259724                       # Number of ops (including micro ops) simulated (Count)
hostInstRate                                268603930                       # Simulator instruction rate (inst/s) ((Count/Second))
hostOpRate                                  607487227                       # Simulator op (including micro ops) rate (op/s) ((Count/Second))
system.apicbridge.power_state.pwrStateResidencyTicks::UNDEFINED   3085978500                       # Cumulative time (in ticks) in various power states (Tick)
system.bridge.power_state.pwrStateResidencyTicks::UNDEFINED   3085978500                       # Cumulative time (in ticks) in various power states (Tick)
system.clk_domain.clock                           417                       # Clock period in ticks (Tick)
system.cpu.numCycles                          5773781                       # Number of cpu cycles simulated (Cycle)
system.cpu.numWorkItemsStarted                      0                       # Number of work items this cpu started (Count)
system.cpu.numWorkItemsCompleted                    0                       # Number of work items this cpu completed (Count)
system.cpu.dcache.demandHits::cpu.data         989638                       # number of demand (read+write) hits (Count)
system.cpu.dcache.demandHits::total            989638                       # number of demand (read+write) hits (Count)
system.cpu.dcache.overallHits::cpu.data        998477                       # number of overall hits (Count)
system.cpu.dcache.overallHits::total           998477                       # number of overall hits (Count)
system.cpu.dcache.demandMisses::cpu.data        10839                       # number of demand (read+write) misses (Count)
system.cpu.dcache.demandMisses::total           10839                       # number of demand (read+write) misses (Count)
system.cpu.dcache.overallMisses::cpu.data        11815                       # number of overall misses (Count)
system.cpu.dcache.overallMisses::total          11815                       # number of overall misses (Count)
system.cpu.dcache.demandAccesses::cpu.data      1000477                       # number of demand (read+write) accesses (Count)
system.cpu.dcache.demandAccesses::total       1000477                       # number of demand (read+write) accesses (Count)
system.cpu.dcache.overallAccesses::cpu.data      1010292                       # number of overall (read+write) accesses (Count)
system.cpu.dcache.overallAccesses::total      1010292                       # number of overall (read+write) accesses (Count)
system.cpu.dcache.demandMissRate::cpu.data     0.010834                       # miss rate for demand accesses (Ratio)
system.cpu.dcache.demandMissRate::total      0.010834                       # miss rate for demand accesses (Ratio)
system.cpu.dcache.overallMissRate::cpu.data     0.011695                       # miss rate for overall accesses (Ratio)
system.cpu.dcache.overallMissRate::total     0.011695                       # miss rate for overall accesses (Ratio)
system.cpu.dcache.blockedCycles::no_mshrs            0                       # number of cycles access was blocked (Cycle)
system.cpu.dcache.blockedCycles::no_targets            0                       # number of cycles access was blocked (Cycle)
system.cpu.dcache.blockedCauses::no_mshrs            0                       # number of times access was blocked (Count)
system.cpu.dcache.blockedCauses::no_targets            0                       # number of times access was blocked (Count)
system.cpu.dcache.avgBlocked::no_mshrs            nan                       # average number of cycles each access was blocked ((Cycle/Count))
system.cpu.dcache.avgBlocked::no_targets          nan                       # average number of cycles each access was blocked ((Cycle/Count))
system.cpu.dcache.writebacks::writebacks         9070                       # number of writebacks (Count)
system.cpu.dcache.writebacks::total              9070                       # number of writebacks (Count)
system.cpu.dcache.replacements                  11577                       # number of replacements (Count)
system.cpu.dcache.LockedRMWReadReq.hits::cpu.data         3154                       # number of LockedRMWReadReq hits (Count)
system.cpu.dcache.LockedRMWReadReq.hits::total         3154                       # number of LockedRMWReadReq hits (Count)
system.cpu.dcache.LockedRMWReadReq.misses::cpu.data           18                       # number of LockedRMWReadReq misses (Count)
system.cpu.dcache.LockedRMWReadReq.misses::total           18                       # number of LockedRMWReadReq misses (Count)
system.cpu.dcache.LockedRMWReadReq.accesses::cpu.data         3172                       # number of LockedRMWReadReq accesses(hits+misses) (Count)
system.cpu.dcache.LockedRMWReadReq.accesses::total         3172                       # number of LockedRMWReadReq accesses(hits+misses) (Count)
system.cpu.dcache.LockedRMWReadReq.missRate::cpu.data     0.005675                       # miss rate for LockedRMWReadReq accesses (Ratio)
system.cpu.dcache.LockedRMWReadReq.missRate::total     0.005675                       # miss rate for LockedRMWReadReq accesses (Ratio)
system.cpu.dcache.LockedRMWWriteReq.hits::cpu.data         3172                       # number of LockedRMWWriteReq hits (Count)
system.cpu.dcache.LockedRMWWriteReq.hits::total         3172                       # number of LockedRMWWriteReq hits (Count)
system.cpu.dcache.LockedRMWWriteReq.accesses::cpu.data         3172                       # number of LockedRMWWriteReq accesses(hits+misses) (Count)
system.cpu.dcache.LockedRMWWriteReq.accesses::total         3172                       # number of LockedRMWWriteReq accesses(hits+misses) (Count)
system.cpu.dcache.ReadReq.hits::cpu.data       610214                       # number of ReadReq hits (Count)
system.cpu.dcache.ReadReq.hits::total          610214                       # number of ReadReq hits (Count)
system.cpu.dcache.ReadReq.misses::cpu.data         5261                       # number of ReadReq misses (Count)
system.cpu.dcache.ReadReq.misses::total          5261                       # number of ReadReq misses (Count)
system.cpu.dcache.ReadReq.accesses::cpu.data       615475                       # number of ReadReq accesses(hits+misses) (Count)
system.cpu.dcache.ReadReq.accesses::total       615475                       # number of ReadReq accesses(hits+misses) (Count)
system.cpu.dcache.ReadReq.missRate::cpu.data     0.008548                       # miss rate for ReadReq accesses (Ratio)
system.cpu.dcache.ReadReq.missRate::total     0.008548                       # miss rate for ReadReq accesses (Ratio)
system.cpu.dcache.SoftPFReq.hits::cpu.data         8839                       # number of SoftPFReq hits (Count)
system.cpu.dcache.SoftPFReq.hits::total          8839                       # number of SoftPFReq hits (Count)
system.cpu.dcache.SoftPFReq.misses::cpu.data          976                       # number of SoftPFReq misses (Count)
system.cpu.dcache.SoftPFReq.misses::total          976                       # number of SoftPFReq misses (Count)
system.cpu.dcache.SoftPFReq.accesses::cpu.data         9815                       # number of SoftPFReq accesses(hits+misses) (Count)
system.cpu.dcache.SoftPFReq.accesses::total         9815                       # number of SoftPFReq accesses(hits+misses) (Count)
system.cpu.dcache.SoftPFReq.missRate::cpu.data     0.099440                       # miss rate for SoftPFReq accesses (Ratio)
system.cpu.dcache.SoftPFReq.missRate::total     0.099440                       # miss rate for SoftPFReq accesses (Ratio)
system.cpu.dcache.WriteReq.hits::cpu.data       379424                       # number of WriteReq hits (Count)
system.cpu.dcache.WriteReq.hits::total         379424                       # number of WriteReq hits (Count)
system.cpu.dcache.WriteReq.misses::cpu.data         5578                       # number of WriteReq misses (Count)
system.cpu.dcache.WriteReq.misses::total         5578                       # number of WriteReq misses (Count)
system.cpu.dcache.WriteReq.accesses::cpu.data       385002                       # number of WriteReq accesses(hits+misses) (Count)
system.cpu.dcache.WriteReq.accesses::total       385002                       # number of WriteReq accesses(hits+misses) (Count)
system.cpu.dcache.WriteReq.missRate::cpu.data     0.014488                       # miss rate for WriteReq accesses (Ratio)
system.cpu.dcache.WriteReq.missRate::total     0.014488                       # miss rate for WriteReq accesses (Ratio)
system.cpu.dcache.power_state.pwrStateResidencyTicks::UNDEFINED   3085978500                       # Cumulative time (in ticks) in various power states (Tick)
system.cpu.dcache.tags.tagsInUse          1023.786178                       # Average ticks per tags in use ((Tick/Count))
system.cpu.dcache.tags.totalRefs               600250                       # Total number of references to valid blocks. (Count)
system.cpu.dcache.tags.sampledRefs              11578                       # Sample count of references to valid blocks. (Count)
system.cpu.dcache.tags.avgRefs              51.844015                       # Average number of references to valid blocks. ((Count/Count))
system.cpu.dcache.tags.warmupTick                   0                       # The tick when the warmup percentage was hit. (Tick)
system.cpu.dcache.tags.occupancies::cpu.data  1023.786178                       # Average occupied blocks per tick, per requestor ((Count/Tick))
system.cpu.dcache.tags.avgOccs::cpu.data     0.999791                       # Average percentage of cache occupancy ((Ratio/Tick))
system.cpu.dcache.tags.avgOccs::total        0.999791                       # Average percentage of cache occupancy ((Ratio/Tick))
system.cpu.dcache.tags.occupanciesTaskId::1024         1024                       # Occupied blocks per task id (Count)
system.cpu.dcache.tags.ageTaskId_1024::0           23                       # Occupied blocks per task id, per block age (Count)
system.cpu.dcache.tags.ageTaskId_1024::1          116                       # Occupied blocks per task id, per block age (Count)
system.cpu.dcache.tags.ageTaskId_1024::2          357                       # Occupied blocks per task id, per block age (Count)
system.cpu.dcache.tags.ageTaskId_1024::3          528                       # Occupied blocks per task id, per block age (Count)
system.cpu.dcache.tags.ratioOccsTaskId::1024            1                       # Ratio of occupied blocks and all blocks, per task id (Ratio)
system.cpu.dcache.tags.tagAccesses            2044850                       # Number of tag accesses (Count)
system.cpu.dcache.tags.dataAccesses           2044850                       # Number of data accesses (Count)
system.cpu.dcache.tags.power_state.pwrStateResidencyTicks::UNDEFINED   3085978500                       # Cumulative time (in ticks) in various power states (Tick)
system.cpu.dtb_walker_cache.demandHits::cpu.mmu.dtb.walker          252                       # number of demand (read+write) hits (Count)
system.cpu.dtb_walker_cache.demandHits::total          252                       # number of demand (read+write) hits (Count)
system.cpu.dtb_walker_cache.overallHits::cpu.mmu.dtb.walker          252                       # number of overall hits (Count)
system.cpu.dtb_walker_cache.overallHits::total          252                       # number of overall hits (Count)
system.cpu.dtb_walker_cache.demandMisses::cpu.mmu.dtb.walker          487                       # number of demand (read+write) misses (Count)
system.cpu.dtb_walker_cache.demandMisses::total          487                       # number of demand (read+write) misses (Count)
system.cpu.dtb_walker_cache.overallMisses::cpu.mmu.dtb.walker          487                       # number of overall misses (Count)
system.cpu.dtb_walker_cache.overallMisses::total          487                       # number of overall misses (Count)
system.cpu.dtb_walker_cache.demandAccesses::cpu.mmu.dtb.walker          739                       # number of demand (read+write) accesses (Count)
system.cpu.dtb_walker_cache.demandAccesses::total          739                       # number of demand (read+write) accesses (Count)
system.cpu.dtb_walker_cache.overallAccesses::cpu.mmu.dtb.walker          739                       # number of overall (read+write) accesses (Count)
system.cpu.dtb_walker_cache.overallAccesses::total          739                       # number of overall (read+write) accesses (Count)
system.cpu.dtb_walker_cache.demandMissRate::cpu.mmu.dtb.walker     0.658999                       # miss rate for demand accesses (Ratio)
system.cpu.dtb_walker_cache.demandMissRate::total     0.658999                       # miss rate for demand accesses (Ratio)
system.cpu.dtb_walker_cache.overallMissRate::cpu.mmu.dtb.walker     0.658999                       # miss rate for overall accesses (Ratio)
system.cpu.dtb_walker_cache.overallMissRate::total     0.658999                       # miss rate for overall accesses (Ratio)
system.cpu.dtb_walker_cache.blockedCycles::no_mshrs            0                       # number of cycles access was blocked (Cycle)
system.cpu.dtb_walker_cache.blockedCycles::no_targets            0                       # number of cycles access was blocked (Cycle)
system.cpu.dtb_walker_cache.blockedCauses::no_mshrs            0                       # number of times access was blocked (Count)
system.cpu.dtb_walker_cache.blockedCauses::no_targets            0                       # number of times access was blocked (Count)
system.cpu.dtb_walker_cache.avgBlocked::no_mshrs          nan                       # average number of cycles each access was blocked ((Cycle/Count))
system.cpu.dtb_walker_cache.avgBlocked::no_targets          nan                       # average number of cycles each access was blocked ((Cycle/Count))
system.cpu.dtb_walker_cache.writebacks::writebacks           32                       # number of writebacks (Count)
system.cpu.dtb_walker_cache.writebacks::total           32                       # number of writebacks (Count)
system.cpu.dtb_walker_cache.replacements          387                       # number of replacements (Count)
system.cpu.dtb_walker_cache.ReadReq.hits::cpu.mmu.dtb.walker          252                       # number of ReadReq hits (Count)
system.cpu.dtb_walker_cache.ReadReq.hits::total          252                       # number of ReadReq hits (Count)
system.cpu.dtb_walker_cache.ReadReq.misses::cpu.mmu.dtb.walker          487                       # number of ReadReq misses (Count)
system.cpu.dtb_walker_cache.ReadReq.misses::total          487                       # number of ReadReq misses (Count)
system.cpu.dtb_walker_cache.ReadReq.accesses::cpu.mmu.dtb.walker          739                       # number of ReadReq accesses(hits+misses) (Count)
system.cpu.dtb_walker_cache.ReadReq.accesses::total          739                       # number of ReadReq accesses(hits+misses) (Count)
system.cpu.dtb_walker_cache.ReadReq.missRate::cpu.mmu.dtb.walker     0.658999                       # miss rate for ReadReq accesses (Ratio)
system.cpu.dtb_walker_cache.ReadReq.missRate::total     0.658999                       # miss rate for ReadReq accesses (Ratio)
system.cpu.dtb_walker_cache.power_state.pwrStateResidencyTicks::UNDEFINED   3085978500                       # Cumulative time (in ticks) in various power states (Tick)
system.cpu.dtb_walker_cache.tags.tagsInUse    14.694205                       # Average ticks per tags in use ((Tick/Count))
system.cpu.dtb_walker_cache.tags.totalRefs          718                       # Total number of references to valid blocks. (Count)
system.cpu.dtb_walker_cache.tags.sampledRefs          482                       # Sample count of references to valid blocks. (Count)
system.cpu.dtb_walker_cache.tags.avgRefs     1.489627                       # Average number of references to valid blocks. ((Count/Count))
system.cpu.dtb_walker_cache.tags.warmupTick            0                       # The tick when the warmup percentage was hit. (Tick)
system.cpu.dtb_walker_cache.tags.occupancies::cpu.mmu.dtb.walker    14.694205                       # Average occupied blocks per tick, per requestor ((Count/Tick))
system.cpu.dtb_walker_cache.tags.avgOccs::cpu.mmu.dtb.walker     0.918388                       # Average percentage of cache occupancy ((Ratio/Tick))
system.cpu.dtb_walker_cache.tags.avgOccs::total     0.918388                       # Average percentage of cache occupancy ((Ratio/Tick))
system.cpu.dtb_walker_cache.tags.occupanciesTaskId::1024           16                       # Occupied blocks per task id (Count)
system.cpu.dtb_walker_cache.tags.ageTaskId_1024::0            3                       # Occupied blocks per task id, per block age (Count)
system.cpu.dtb_walker_cache.tags.ageTaskId_1024::2            2                       # Occupied blocks per task id, per block age (Count)
system.cpu.dtb_walker_cache.tags.ageTaskId_1024::3           11                       # Occupied blocks per task id, per block age (Count)
system.cpu.dtb_walker_cache.tags.ratioOccsTaskId::1024            1                       # Ratio of occupied blocks and all blocks, per task id (Ratio)
system.cpu.dtb_walker_cache.tags.tagAccesses         1965                       # Number of tag accesses (Count)
system.cpu.dtb_walker_cache.tags.dataAccesses         1965                       # Number of data accesses (Count)
system.cpu.dtb_walker_cache.tags.power_state.pwrStateResidencyTicks::UNDEFINED   3085978500                       # Cumulative time (in ticks) in various power states (Tick)
system.cpu.exec_context.thread_0.numInsts      2303306                       # Number of instructions committed (Count)
system.cpu.exec_context.thread_0.numOps       4337980                       # Number of ops (including micro ops) committed (Count)
system.cpu.exec_context.thread_0.numIntAluAccesses      4266688                       # Number of integer alu accesses (Count)
system.cpu.exec_context.thread_0.numFpAluAccesses        10295                       # Number of float alu accesses (Count)
system.cpu.exec_context.thread_0.numVecAluAccesses            0                       # Number of vector alu accesses (Count)
system.cpu.exec_context.thread_0.numCallsReturns       107276                       # Number of times a function call or return occured (Count)
system.cpu.exec_context.thread_0.numCondCtrlInsts       329003                       # Number of instructions that are conditional controls (Count)
system.cpu.exec_context.thread_0.numIntInsts      4266688                       # Number of integer instructions (Count)
system.cpu.exec_context.thread_0.numFpInsts        10295                       # Number of float instructions (Count)
system.cpu.exec_context.thread_0.numVecInsts            0                       # Number of vector instructions (Count)
system.cpu.exec_context.thread_0.numIntRegReads      5839148                       # Number of times the integer registers were read (Count)
system.cpu.exec_context.thread_0.numIntRegWrites      3085709                       # Number of times the integer registers were written (Count)
system.cpu.exec_context.thread_0.numFpRegReads        16859                       # Number of times the floating registers were read (Count)
system.cpu.exec_context.thread_0.numFpRegWrites         8105                       # Number of times the floating registers were written (Count)
system.cpu.exec_context.thread_0.numVecRegReads            0                       # Number of times the vector registers were read (Count)
system.cpu.exec_context.thread_0.numVecRegWrites            0                       # Number of times the vector registers were written (Count)
system.cpu.exec_context.thread_0.numVecPredRegReads            0                       # Number of times the predicate registers were read (Count)
system.cpu.exec_context.thread_0.numVecPredRegWrites            0                       # Number of times the predicate registers were written (Count)
system.cpu.exec_context.thread_0.numCCRegReads      2498178                       # Number of times the CC registers were read (Count)
system.cpu.exec_context.thread_0.numCCRegWrites      1417063                       # Number of times the CC registers were written (Count)
system.cpu.exec_context.thread_0.numMiscRegReads      1877522                       # Number of times the Misc registers were read (Count)
system.cpu.exec_context.thread_0.numMiscRegWrites        19288                       # Number of times the Misc registers were written (Count)
system.cpu.exec_context.thread_0.numMemRefs      1019110                       # Number of memory refs (Count)
system.cpu.exec_context.thread_0.numLoadInsts       629890                       # Number of load instructions (Count)
system.cpu.exec_context.thread_0.numStoreInsts       389220                       # Number of store instructions (Count)
system.cpu.exec_context.thread_0.numIdleCycles 671639.697694                       # Number of idle cycles (Cycle)
system.cpu.exec_context.thread_0.numBusyCycles 5102141.302306                       # Number of busy cycles (Cycle)
system.cpu.exec_context.thread_0.notIdleFraction     0.883674                       # Percentage of non-idle cycles (Ratio)
system.cpu.exec_context.thread_0.idleFraction     0.116326                       # Percentage of idle cycles (Ratio)
system.cpu.exec_context.thread_0.numBranches       468740                       # Number of branches fetched (Count)
system.cpu.exec_context.thread_0.statExecutedInstType::No_OpClass        14447      0.33%      0.33% # Class of executed instruction. (Count)
system.cpu.exec_context.thread_0.statExecutedInstType::IntAlu      3285766     75.74%     76.08% # Class of executed instruction. (Count)
system.cpu.exec_context.thread_0.statExecutedInstType::IntMult         6780      0.16%     76.23% # Class of executed instruction. (Count)
system.cpu.exec_context.thread_0.statExecutedInstType::IntDiv         5339      0.12%     76.36% # Class of executed instruction. (Count)
system.cpu.exec_context.thread_0.statExecutedInstType::FloatAdd           76      0.00%     76.36% # Class of executed instruction. (Count)
system.cpu.exec_context.thread_0.statExecutedInstType::FloatCmp            0      0.00%     76.36% # Class of executed instruction. (Count)
system.cpu.exec_context.thread_0.statExecutedInstType::FloatCvt            0      0.00%     76.36% # Class of executed instruction. (Count)
system.cpu.exec_context.thread_0.statExecutedInstType::FloatMult            0      0.00%     76.36% # Class of executed instruction. (Count)
system.cpu.exec_context.thread_0.statExecutedInstType::FloatMultAcc            0      0.00%     76.36% # Class of executed instruction. (Count)
system.cpu.exec_context.thread_0.statExecutedInstType::FloatDiv            0      0.00%     76.36% # Class of executed instruction. (Count)
system.cpu.exec_context.thread_0.statExecutedInstType::FloatMisc            0      0.00%     76.36% # Class of executed instruction. (Count)
system.cpu.exec_context.thread_0.statExecutedInstType::FloatSqrt            0      0.00%     76.36% # Class of executed instruction. (Count)
system.cpu.exec_context.thread_0.statExecutedInstType::SimdAdd           52      0.00%     76.36% # Class of executed instruction. (Count)
system.cpu.exec_context.thread_0.statExecutedInstType::SimdAddAcc            0      0.00%     76.36% # Class of executed instruction. (Count)
system.cpu.exec_context.thread_0.statExecutedInstType::SimdAlu         1546      0.04%     76.39% # Class of executed instruction. (Count)
system.cpu.exec_context.thread_0.statExecutedInstType::SimdCmp            0      0.00%     76.39% # Class of executed instruction. (Count)
system.cpu.exec_context.thread_0.statExecutedInstType::SimdCvt         2232      0.05%     76.45% # Class of executed instruction. (Count)
system.cpu.exec_context.thread_0.statExecutedInstType::SimdMisc         2698      0.06%     76.51% # Class of executed instruction. (Count)
system.cpu.exec_context.thread_0.statExecutedInstType::SimdMult            0      0.00%     76.51% # Class of executed instruction. (Count)
system.cpu.exec_context.thread_0.statExecutedInstType::SimdMultAcc            0      0.00%     76.51% # Class of executed instruction. (Count)
system.cpu.exec_context.thread_0.statExecutedInstType::SimdShift           26      0.00%     76.51% # Class of executed instruction. (Count)
system.cpu.exec_context.thread_0.statExecutedInstType::SimdShiftAcc            0      0.00%     76.51% # Class of executed instruction. (Count)
system.cpu.exec_context.thread_0.statExecutedInstType::SimdDiv            0      0.00%     76.51% # Class of executed instruction. (Count)
system.cpu.exec_context.thread_0.statExecutedInstType::SimdSqrt            0      0.00%     76.51% # Class of executed instruction. (Count)
system.cpu.exec_context.thread_0.statExecutedInstType::SimdFloatAdd            1      0.00%     76.51% # Class of executed instruction. (Count)
system.cpu.exec_context.thread_0.statExecutedInstType::SimdFloatAlu            0      0.00%     76.51% # Class of executed instruction. (Count)
system.cpu.exec_context.thread_0.statExecutedInstType::SimdFloatCmp            0      0.00%     76.51% # Class of executed instruction. (Count)
system.cpu.exec_context.thread_0.statExecutedInstType::SimdFloatCvt            2      0.00%     76.51% # Class of executed instruction. (Count)
system.cpu.exec_context.thread_0.statExecutedInstType::SimdFloatDiv            0      0.00%     76.51% # Class of executed instruction. (Count)
system.cpu.exec_context.thread_0.statExecutedInstType::SimdFloatMisc            0      0.00%     76.51% # Class of executed instruction. (Count)
system.cpu.exec_context.thread_0.statExecutedInstType::SimdFloatMult            1      0.00%     76.51% # Class of executed instruction. (Count)
system.cpu.exec_context.thread_0.statExecutedInstType::SimdFloatMultAcc            0      0.00%     76.51% # Class of executed instruction. (Count)
system.cpu.exec_context.thread_0.statExecutedInstType::SimdFloatSqrt            0      0.00%     76.51% # Class of executed instruction. (Count)
system.cpu.exec_context.thread_0.statExecutedInstType::SimdReduceAdd            0      0.00%     76.51% # Class of executed instruction. (Count)
system.cpu.exec_context.thread_0.statExecutedInstType::SimdReduceAlu            0      0.00%     76.51% # Class of executed instruction. (Count)
system.cpu.exec_context.thread_0.statExecutedInstType::SimdReduceCmp            0      0.00%     76.51% # Class of executed instruction. (Count)
system.cpu.exec_context.thread_0.statExecutedInstType::SimdFloatReduceAdd            0      0.00%     76.51% # Class of executed instruction. (Count)
system.cpu.exec_context.thread_0.statExecutedInstType::SimdFloatReduceCmp            0      0.00%     76.51% # Class of executed instruction. (Count)
system.cpu.exec_context.thread_0.statExecutedInstType::SimdAes            0      0.00%     76.51% # Class of executed instruction. (Count)
system.cpu.exec_context.thread_0.statExecutedInstType::SimdAesMix            0      0.00%     76.51% # Class of executed instruction. (Count)
system.cpu.exec_context.thread_0.statExecutedInstType::SimdSha1Hash            0      0.00%     76.51% # Class of executed instruction. (Count)
system.cpu.exec_context.thread_0.statExecutedInstType::SimdSha1Hash2            0      0.00%     76.51% # Class of executed instruction. (Count)
system.cpu.exec_context.thread_0.statExecutedInstType::SimdSha256Hash            0      0.00%     76.51% # Class of executed instruction. (Count)
system.cpu.exec_context.thread_0.statExecutedInstType::SimdSha256Hash2            0      0.00%     76.51% # Class of executed instruction. (Count)
system.cpu.exec_context.thread_0.statExecutedInstType::SimdShaSigma2            0      0.00%     76.51% # Class of executed instruction. (Count)
system.cpu.exec_context.thread_0.statExecutedInstType::SimdShaSigma3            0      0.00%     76.51% # Class of executed instruction. (Count)
system.cpu.exec_context.thread_0.statExecutedInstType::SimdPredAlu            0      0.00%     76.51% # Class of executed instruction. (Count)
system.cpu.exec_context.thread_0.statExecutedInstType::MemRead       627994     14.48%     90.98% # Class of executed instruction. (Count)
system.cpu.exec_context.thread_0.statExecutedInstType::MemWrite       389213      8.97%     99.96% # Class of executed instruction. (Count)
system.cpu.exec_context.thread_0.statExecutedInstType::FloatMemRead         1876      0.04%    100.00% # Class of executed instruction. (Count)
system.cpu.exec_context.thread_0.statExecutedInstType::FloatMemWrite            7      0.00%    100.00% # Class of executed instruction. (Count)
system.cpu.exec_context.thread_0.statExecutedInstType::IprAccess            0      0.00%    100.00% # Class of executed instruction. (Count)
system.cpu.exec_context.thread_0.statExecutedInstType::InstPrefetch            0      0.00%    100.00% # Class of executed instruction. (Count)
system.cpu.exec_context.thread_0.statExecutedInstType::total      4338056                       # Class of executed instruction. (Count)
system.cpu.icache.demandHits::cpu.inst        2942098                       # number of demand (read+write) hits (Count)
system.cpu.icache.demandHits::total           2942098                       # number of demand (read+write) hits (Count)
system.cpu.icache.overallHits::cpu.inst       2942098                       # number of overall hits (Count)
system.cpu.icache.overallHits::total          2942098                       # number of overall hits (Count)
system.cpu.icache.demandMisses::cpu.inst       125518                       # number of demand (read+write) misses (Count)
system.cpu.icache.demandMisses::total          125518                       # number of demand (read+write) misses (Count)
system.cpu.icache.overallMisses::cpu.inst       125518                       # number of overall misses (Count)
system.cpu.icache.overallMisses::total         125518                       # number of overall misses (Count)
system.cpu.icache.demandAccesses::cpu.inst      3067616                       # number of demand (read+write) accesses (Count)
system.cpu.icache.demandAccesses::total       3067616                       # number of demand (read+write) accesses (Count)
system.cpu.icache.overallAccesses::cpu.inst      3067616                       # number of overall (read+write) accesses (Count)
system.cpu.icache.overallAccesses::total      3067616                       # number of overall (read+write) accesses (Count)
system.cpu.icache.demandMissRate::cpu.inst     0.040917                       # miss rate for demand accesses (Ratio)
system.cpu.icache.demandMissRate::total      0.040917                       # miss rate for demand accesses (Ratio)
system.cpu.icache.overallMissRate::cpu.inst     0.040917                       # miss rate for overall accesses (Ratio)
system.cpu.icache.overallMissRate::total     0.040917                       # miss rate for overall accesses (Ratio)
system.cpu.icache.blockedCycles::no_mshrs            0                       # number of cycles access was blocked (Cycle)
system.cpu.icache.blockedCycles::no_targets            0                       # number of cycles access was blocked (Cycle)
system.cpu.icache.blockedCauses::no_mshrs            0                       # number of times access was blocked (Count)
system.cpu.icache.blockedCauses::no_targets            0                       # number of times access was blocked (Count)
system.cpu.icache.avgBlocked::no_mshrs            nan                       # average number of cycles each access was blocked ((Cycle/Count))
system.cpu.icache.avgBlocked::no_targets          nan                       # average number of cycles each access was blocked ((Cycle/Count))
system.cpu.icache.writebacks::writebacks       125518                       # number of writebacks (Count)
system.cpu.icache.writebacks::total            125518                       # number of writebacks (Count)
system.cpu.icache.replacements                 125518                       # number of replacements (Count)
system.cpu.icache.ReadReq.hits::cpu.inst      2942098                       # number of ReadReq hits (Count)
system.cpu.icache.ReadReq.hits::total         2942098                       # number of ReadReq hits (Count)
system.cpu.icache.ReadReq.misses::cpu.inst       125518                       # number of ReadReq misses (Count)
system.cpu.icache.ReadReq.misses::total        125518                       # number of ReadReq misses (Count)
system.cpu.icache.ReadReq.accesses::cpu.inst      3067616                       # number of ReadReq accesses(hits+misses) (Count)
system.cpu.icache.ReadReq.accesses::total      3067616                       # number of ReadReq accesses(hits+misses) (Count)
system.cpu.icache.ReadReq.missRate::cpu.inst     0.040917                       # miss rate for ReadReq accesses (Ratio)
system.cpu.icache.ReadReq.missRate::total     0.040917                       # miss rate for ReadReq accesses (Ratio)
system.cpu.icache.power_state.pwrStateResidencyTicks::UNDEFINED   3085978500                       # Cumulative time (in ticks) in various power states (Tick)
system.cpu.icache.tags.tagsInUse                   64                       # Average ticks per tags in use ((Tick/Count))
system.cpu.icache.tags.totalRefs              3068531                       # Total number of references to valid blocks. (Count)
system.cpu.icache.tags.sampledRefs             125518                       # Sample count of references to valid blocks. (Count)
system.cpu.icache.tags.avgRefs              24.446940                       # Average number of references to valid blocks. ((Count/Count))
system.cpu.icache.tags.warmupTick                   0                       # The tick when the warmup percentage was hit. (Tick)
system.cpu.icache.tags.occupancies::cpu.inst           64                       # Average occupied blocks per tick, per requestor ((Count/Tick))
system.cpu.icache.tags.avgOccs::cpu.inst            1                       # Average percentage of cache occupancy ((Ratio/Tick))
system.cpu.icache.tags.avgOccs::total               1                       # Average percentage of cache occupancy ((Ratio/Tick))
system.cpu.icache.tags.occupanciesTaskId::1024           64                       # Occupied blocks per task id (Count)
system.cpu.icache.tags.ageTaskId_1024::0           64                       # Occupied blocks per task id, per block age (Count)
system.cpu.icache.tags.ratioOccsTaskId::1024            1                       # Ratio of occupied blocks and all blocks, per task id (Ratio)
system.cpu.icache.tags.tagAccesses            6260750                       # Number of tag accesses (Count)
system.cpu.icache.tags.dataAccesses           6260750                       # Number of data accesses (Count)
system.cpu.icache.tags.power_state.pwrStateResidencyTicks::UNDEFINED   3085978500                       # Cumulative time (in ticks) in various power states (Tick)
system.cpu.interrupts.clk_domain.clock           8000                       # Clock period in ticks (Tick)
system.cpu.itb_walker_cache.demandHits::cpu.mmu.itb.walker          415                       # number of demand (read+write) hits (Count)
system.cpu.itb_walker_cache.demandHits::total          415                       # number of demand (read+write) hits (Count)
system.cpu.itb_walker_cache.overallHits::cpu.mmu.itb.walker          415                       # number of overall hits (Count)
system.cpu.itb_walker_cache.overallHits::total          415                       # number of overall hits (Count)
system.cpu.itb_walker_cache.demandMisses::cpu.mmu.itb.walker          815                       # number of demand (read+write) misses (Count)
system.cpu.itb_walker_cache.demandMisses::total          815                       # number of demand (read+write) misses (Count)
system.cpu.itb_walker_cache.overallMisses::cpu.mmu.itb.walker          815                       # number of overall misses (Count)
system.cpu.itb_walker_cache.overallMisses::total          815                       # number of overall misses (Count)
system.cpu.itb_walker_cache.demandAccesses::cpu.mmu.itb.walker         1230                       # number of demand (read+write) accesses (Count)
system.cpu.itb_walker_cache.demandAccesses::total         1230                       # number of demand (read+write) accesses (Count)
system.cpu.itb_walker_cache.overallAccesses::cpu.mmu.itb.walker         1230                       # number of overall (read+write) accesses (Count)
system.cpu.itb_walker_cache.overallAccesses::total         1230                       # number of overall (read+write) accesses (Count)
system.cpu.itb_walker_cache.demandMissRate::cpu.mmu.itb.walker     0.662602                       # miss rate for demand accesses (Ratio)
system.cpu.itb_walker_cache.demandMissRate::total     0.662602                       # miss rate for demand accesses (Ratio)
system.cpu.itb_walker_cache.overallMissRate::cpu.mmu.itb.walker     0.662602                       # miss rate for overall accesses (Ratio)
system.cpu.itb_walker_cache.overallMissRate::total     0.662602                       # miss rate for overall accesses (Ratio)
system.cpu.itb_walker_cache.blockedCycles::no_mshrs            0                       # number of cycles access was blocked (Cycle)
system.cpu.itb_walker_cache.blockedCycles::no_targets            0                       # number of cycles access was blocked (Cycle)
system.cpu.itb_walker_cache.blockedCauses::no_mshrs            0                       # number of times access was blocked (Count)
system.cpu.itb_walker_cache.blockedCauses::no_targets            0                       # number of times access was blocked (Count)
system.cpu.itb_walker_cache.avgBlocked::no_mshrs          nan                       # average number of cycles each access was blocked ((Cycle/Count))
system.cpu.itb_walker_cache.avgBlocked::no_targets          nan                       # average number of cycles each access was blocked ((Cycle/Count))
system.cpu.itb_walker_cache.writebacks::writebacks           23                       # number of writebacks (Count)
system.cpu.itb_walker_cache.writebacks::total           23                       # number of writebacks (Count)
system.cpu.itb_walker_cache.replacements          668                       # number of replacements (Count)
system.cpu.itb_walker_cache.ReadReq.hits::cpu.mmu.itb.walker          415                       # number of ReadReq hits (Count)
system.cpu.itb_walker_cache.ReadReq.hits::total          415                       # number of ReadReq hits (Count)
system.cpu.itb_walker_cache.ReadReq.misses::cpu.mmu.itb.walker          815                       # number of ReadReq misses (Count)
system.cpu.itb_walker_cache.ReadReq.misses::total          815                       # number of ReadReq misses (Count)
system.cpu.itb_walker_cache.ReadReq.accesses::cpu.mmu.itb.walker         1230                       # number of ReadReq accesses(hits+misses) (Count)
system.cpu.itb_walker_cache.ReadReq.accesses::total         1230                       # number of ReadReq accesses(hits+misses) (Count)
system.cpu.itb_walker_cache.ReadReq.missRate::cpu.mmu.itb.walker     0.662602                       # miss rate for ReadReq accesses (Ratio)
system.cpu.itb_walker_cache.ReadReq.missRate::total     0.662602                       # miss rate for ReadReq accesses (Ratio)
system.cpu.itb_walker_cache.power_state.pwrStateResidencyTicks::UNDEFINED   3085978500                       # Cumulative time (in ticks) in various power states (Tick)
system.cpu.itb_walker_cache.tags.tagsInUse    14.113604                       # Average ticks per tags in use ((Tick/Count))
system.cpu.itb_walker_cache.tags.totalRefs         1060                       # Total number of references to valid blocks. (Count)
system.cpu.itb_walker_cache.tags.sampledRefs          811                       # Sample count of references to valid blocks. (Count)
system.cpu.itb_walker_cache.tags.avgRefs     1.307028                       # Average number of references to valid blocks. ((Count/Count))
system.cpu.itb_walker_cache.tags.warmupTick            0                       # The tick when the warmup percentage was hit. (Tick)
system.cpu.itb_walker_cache.tags.occupancies::cpu.mmu.itb.walker    14.113604                       # Average occupied blocks per tick, per requestor ((Count/Tick))
system.cpu.itb_walker_cache.tags.avgOccs::cpu.mmu.itb.walker     0.882100                       # Average percentage of cache occupancy ((Ratio/Tick))
system.cpu.itb_walker_cache.tags.avgOccs::total     0.882100                       # Average percentage of cache occupancy ((Ratio/Tick))
system.cpu.itb_walker_cache.tags.occupanciesTaskId::1024           16                       # Occupied blocks per task id (Count)
system.cpu.itb_walker_cache.tags.ageTaskId_1024::0            4                       # Occupied blocks per task id, per block age (Count)
system.cpu.itb_walker_cache.tags.ageTaskId_1024::1            1                       # Occupied blocks per task id, per block age (Count)
system.cpu.itb_walker_cache.tags.ageTaskId_1024::3           11                       # Occupied blocks per task id, per block age (Count)
system.cpu.itb_walker_cache.tags.ratioOccsTaskId::1024            1                       # Ratio of occupied blocks and all blocks, per task id (Ratio)
system.cpu.itb_walker_cache.tags.tagAccesses         3275                       # Number of tag accesses (Count)
system.cpu.itb_walker_cache.tags.dataAccesses         3275                       # Number of data accesses (Count)
system.cpu.itb_walker_cache.tags.power_state.pwrStateResidencyTicks::UNDEFINED   3085978500                       # Cumulative time (in ticks) in various power states (Tick)
system.cpu.mmu.dtb.rdAccesses                  628518                       # TLB accesses on read requests (Count)
system.cpu.mmu.dtb.wrAccesses                  388563                       # TLB accesses on write requests (Count)
system.cpu.mmu.dtb.rdMisses                       101                       # TLB misses on read requests (Count)
system.cpu.mmu.dtb.wrMisses                        86                       # TLB misses on write requests (Count)
system.cpu.mmu.dtb.walker.power_state.pwrStateResidencyTicks::UNDEFINED   3085978500                       # Cumulative time (in ticks) in various power states (Tick)
system.cpu.mmu.itb.rdAccesses                       0                       # TLB accesses on read requests (Count)
system.cpu.mmu.itb.wrAccesses                 3067741                       # TLB accesses on write requests (Count)
system.cpu.mmu.itb.rdMisses                         0                       # TLB misses on read requests (Count)
system.cpu.mmu.itb.wrMisses                       308                       # TLB misses on write requests (Count)
system.cpu.mmu.itb.walker.power_state.pwrStateResidencyTicks::UNDEFINED   3085978500                       # Cumulative time (in ticks) in various power states (Tick)
system.cpu.power_state.numTransitions             155                       # Number of power state transitions (Count)
system.cpu.power_state.ticksClkGated::samples           66                       # Distribution of time spent in the clock gated state (Tick)
system.cpu.power_state.ticksClkGated::mean 5081931.424242                       # Distribution of time spent in the clock gated state (Tick)
system.cpu.power_state.ticksClkGated::stdev 9260978.374853                       # Distribution of time spent in the clock gated state (Tick)
system.cpu.power_state.ticksClkGated::1000-5e+10           66    100.00%    100.00% # Distribution of time spent in the clock gated state (Tick)
system.cpu.power_state.ticksClkGated::min_value       159134                       # Distribution of time spent in the clock gated state (Tick)
system.cpu.power_state.ticksClkGated::max_value     32785257                       # Distribution of time spent in the clock gated state (Tick)
system.cpu.power_state.ticksClkGated::total           66                       # Distribution of time spent in the clock gated state (Tick)
system.cpu.power_state.pwrStateResidencyTicks::ON   2750571026                       # Cumulative time (in ticks) in various power states (Tick)
system.cpu.power_state.pwrStateResidencyTicks::CLK_GATED    335407474                       # Cumulative time (in ticks) in various power states (Tick)
system.cpu.thread_0.numInsts                        0                       # Number of Instructions committed (Count)
system.cpu.thread_0.numOps                          0                       # Number of Ops committed (Count)
system.cpu.thread_0.numMemRefs                      0                       # Number of Memory References (Count)
system.cpu_clk_domain.clock                       500                       # Clock period in ticks (Tick)
system.cpu_voltage_domain.voltage                   1                       # Voltage in Volts (Volt)
system.iobus.transDist::ReadReq                  1745                       # Transaction distribution (Count)
system.iobus.transDist::ReadResp                 1745                       # Transaction distribution (Count)
system.iobus.transDist::WriteReq                23060                       # Transaction distribution (Count)
system.iobus.transDist::WriteResp               23060                       # Transaction distribution (Count)
system.iobus.pktCount_system.bridge.mem_side_port::system.pc.south_bridge.ide.pio         1058                       # Packet count per connected requestor and responder (Count)
system.iobus.pktCount_system.bridge.mem_side_port::system.pc.com_1.pio         3248                       # Packet count per connected requestor and responder (Count)
system.iobus.pktCount_system.bridge.mem_side_port::total         4306                       # Packet count per connected requestor and responder (Count)
system.iobus.pktCount_system.pc.south_bridge.ide.dma::system.iocache.cpu_side_port        44626                       # Packet count per connected requestor and responder (Count)
system.iobus.pktCount_system.pc.south_bridge.ide.dma::total        44626                       # Packet count per connected requestor and responder (Count)
system.iobus.pktCount_system.pc.south_bridge.io_apic.int_request::system.apicbridge.cpu_side_port          678                       # Packet count per connected requestor and responder (Count)
system.iobus.pktCount_system.pc.south_bridge.io_apic.int_request::total          678                       # Packet count per connected requestor and responder (Count)
system.iobus.pktCount::total                    49610                       # Packet count per connected requestor and responder (Count)
system.iobus.pktSize_system.bridge.mem_side_port::system.pc.south_bridge.ide.pio          598                       # Cumulative packet size per connected requestor and responder (Byte)
system.iobus.pktSize_system.bridge.mem_side_port::system.pc.com_1.pio         1624                       # Cumulative packet size per connected requestor and responder (Byte)
system.iobus.pktSize_system.bridge.mem_side_port::total         2222                       # Cumulative packet size per connected requestor and responder (Byte)
system.iobus.pktSize_system.pc.south_bridge.ide.dma::system.iocache.cpu_side_port      1411400                       # Cumulative packet size per connected requestor and responder (Byte)
system.iobus.pktSize_system.pc.south_bridge.ide.dma::total      1411400                       # Cumulative packet size per connected requestor and responder (Byte)
system.iobus.pktSize_system.pc.south_bridge.io_apic.int_request::system.apicbridge.cpu_side_port         1356                       # Cumulative packet size per connected requestor and responder (Byte)
system.iobus.pktSize_system.pc.south_bridge.io_apic.int_request::total         1356                       # Cumulative packet size per connected requestor and responder (Byte)
system.iobus.pktSize::total                   1414978                       # Cumulative packet size per connected requestor and responder (Byte)
system.iobus.power_state.pwrStateResidencyTicks::UNDEFINED   3085978500                       # Cumulative time (in ticks) in various power states (Tick)
system.iocache.demandMisses::pc.south_bridge.ide        22313                       # number of demand (read+write) misses (Count)
system.iocache.demandMisses::total              22313                       # number of demand (read+write) misses (Count)
system.iocache.overallMisses::pc.south_bridge.ide        22313                       # number of overall misses (Count)
system.iocache.overallMisses::total             22313                       # number of overall misses (Count)
system.iocache.demandAccesses::pc.south_bridge.ide        22313                       # number of demand (read+write) accesses (Count)
system.iocache.demandAccesses::total            22313                       # number of demand (read+write) accesses (Count)
system.iocache.overallAccesses::pc.south_bridge.ide        22313                       # number of overall (read+write) accesses (Count)
system.iocache.overallAccesses::total           22313                       # number of overall (read+write) accesses (Count)
system.iocache.demandMissRate::pc.south_bridge.ide            1                       # miss rate for demand accesses (Ratio)
system.iocache.demandMissRate::total                1                       # miss rate for demand accesses (Ratio)
system.iocache.overallMissRate::pc.south_bridge.ide            1                       # miss rate for overall accesses (Ratio)
system.iocache.overallMissRate::total               1                       # miss rate for overall accesses (Ratio)
system.iocache.blockedCycles::no_mshrs              0                       # number of cycles access was blocked (Cycle)
system.iocache.blockedCycles::no_targets            0                       # number of cycles access was blocked (Cycle)
system.iocache.blockedCauses::no_mshrs              0                       # number of times access was blocked (Count)
system.iocache.blockedCauses::no_targets            0                       # number of times access was blocked (Count)
system.iocache.avgBlocked::no_mshrs               nan                       # average number of cycles each access was blocked ((Cycle/Count))
system.iocache.avgBlocked::no_targets             nan                       # average number of cycles each access was blocked ((Cycle/Count))
system.iocache.writebacks::writebacks           22016                       # number of writebacks (Count)
system.iocache.writebacks::total                22016                       # number of writebacks (Count)
system.iocache.replacements                     22313                       # number of replacements (Count)
system.iocache.ReadReq.misses::pc.south_bridge.ide          297                       # number of ReadReq misses (Count)
system.iocache.ReadReq.misses::total              297                       # number of ReadReq misses (Count)
system.iocache.ReadReq.accesses::pc.south_bridge.ide          297                       # number of ReadReq accesses(hits+misses) (Count)
system.iocache.ReadReq.accesses::total            297                       # number of ReadReq accesses(hits+misses) (Count)
system.iocache.ReadReq.missRate::pc.south_bridge.ide            1                       # miss rate for ReadReq accesses (Ratio)
system.iocache.ReadReq.missRate::total              1                       # miss rate for ReadReq accesses (Ratio)
system.iocache.WriteLineReq.misses::pc.south_bridge.ide        22016                       # number of WriteLineReq misses (Count)
system.iocache.WriteLineReq.misses::total        22016                       # number of WriteLineReq misses (Count)
system.iocache.WriteLineReq.accesses::pc.south_bridge.ide        22016                       # number of WriteLineReq accesses(hits+misses) (Count)
system.iocache.WriteLineReq.accesses::total        22016                       # number of WriteLineReq accesses(hits+misses) (Count)
system.iocache.WriteLineReq.missRate::pc.south_bridge.ide            1                       # miss rate for WriteLineReq accesses (Ratio)
system.iocache.WriteLineReq.missRate::total            1                       # miss rate for WriteLineReq accesses (Ratio)
system.iocache.power_state.pwrStateResidencyTicks::UNDEFINED   3085978500                       # Cumulative time (in ticks) in various power states (Tick)
system.iocache.tags.tagsInUse                      16                       # Average ticks per tags in use ((Tick/Count))
system.iocache.tags.totalRefs                   22313                       # Total number of references to valid blocks. (Count)
system.iocache.tags.sampledRefs                 22313                       # Sample count of references to valid blocks. (Count)
system.iocache.tags.avgRefs                         1                       # Average number of references to valid blocks. ((Count/Count))
system.iocache.tags.warmupTick                      0                       # The tick when the warmup percentage was hit. (Tick)
system.iocache.tags.occupancies::pc.south_bridge.ide           16                       # Average occupied blocks per tick, per requestor ((Count/Tick))
system.iocache.tags.avgOccs::pc.south_bridge.ide            1                       # Average percentage of cache occupancy ((Ratio/Tick))
system.iocache.tags.avgOccs::total                  1                       # Average percentage of cache occupancy ((Ratio/Tick))
system.iocache.tags.occupanciesTaskId::1023           16                       # Occupied blocks per task id (Count)
system.iocache.tags.ageTaskId_1023::3              16                       # Occupied blocks per task id, per block age (Count)
system.iocache.tags.ratioOccsTaskId::1023            1                       # Ratio of occupied blocks and all blocks, per task id (Ratio)
system.iocache.tags.tagAccesses                200817                       # Number of tag accesses (Count)
system.iocache.tags.dataAccesses               200817                       # Number of data accesses (Count)
system.iocache.tags.power_state.pwrStateResidencyTicks::UNDEFINED   3085978500                       # Cumulative time (in ticks) in various power states (Tick)
system.l2.demandHits::cpu.mmu.dtb.walker          310                       # number of demand (read+write) hits (Count)
system.l2.demandHits::cpu.mmu.itb.walker          364                       # number of demand (read+write) hits (Count)
system.l2.demandHits::cpu.inst                 123063                       # number of demand (read+write) hits (Count)
system.l2.demandHits::cpu.data                   7695                       # number of demand (read+write) hits (Count)
system.l2.demandHits::total                    131432                       # number of demand (read+write) hits (Count)
system.l2.overallHits::cpu.mmu.dtb.walker          310                       # number of overall hits (Count)
system.l2.overallHits::cpu.mmu.itb.walker          364                       # number of overall hits (Count)
system.l2.overallHits::cpu.inst                123063                       # number of overall hits (Count)
system.l2.overallHits::cpu.data                  7695                       # number of overall hits (Count)
system.l2.overallHits::total                   131432                       # number of overall hits (Count)
system.l2.demandMisses::cpu.mmu.dtb.walker            6                       # number of demand (read+write) misses (Count)
system.l2.demandMisses::cpu.mmu.itb.walker           12                       # number of demand (read+write) misses (Count)
system.l2.demandMisses::cpu.inst                 2455                       # number of demand (read+write) misses (Count)
system.l2.demandMisses::cpu.data                 3800                       # number of demand (read+write) misses (Count)
system.l2.demandMisses::total                    6273                       # number of demand (read+write) misses (Count)
system.l2.overallMisses::cpu.mmu.dtb.walker            6                       # number of overall misses (Count)
system.l2.overallMisses::cpu.mmu.itb.walker           12                       # number of overall misses (Count)
system.l2.overallMisses::cpu.inst                2455                       # number of overall misses (Count)
system.l2.overallMisses::cpu.data                3800                       # number of overall misses (Count)
system.l2.overallMisses::total                   6273                       # number of overall misses (Count)
system.l2.demandAccesses::cpu.mmu.dtb.walker          316                       # number of demand (read+write) accesses (Count)
system.l2.demandAccesses::cpu.mmu.itb.walker          376                       # number of demand (read+write) accesses (Count)
system.l2.demandAccesses::cpu.inst             125518                       # number of demand (read+write) accesses (Count)
system.l2.demandAccesses::cpu.data              11495                       # number of demand (read+write) accesses (Count)
system.l2.demandAccesses::total                137705                       # number of demand (read+write) accesses (Count)
system.l2.overallAccesses::cpu.mmu.dtb.walker          316                       # number of overall (read+write) accesses (Count)
system.l2.overallAccesses::cpu.mmu.itb.walker          376                       # number of overall (read+write) accesses (Count)
system.l2.overallAccesses::cpu.inst            125518                       # number of overall (read+write) accesses (Count)
system.l2.overallAccesses::cpu.data             11495                       # number of overall (read+write) accesses (Count)
system.l2.overallAccesses::total               137705                       # number of overall (read+write) accesses (Count)
system.l2.demandMissRate::cpu.mmu.dtb.walker     0.018987                       # miss rate for demand accesses (Ratio)
system.l2.demandMissRate::cpu.mmu.itb.walker     0.031915                       # miss rate for demand accesses (Ratio)
system.l2.demandMissRate::cpu.inst           0.019559                       # miss rate for demand accesses (Ratio)
system.l2.demandMissRate::cpu.data           0.330579                       # miss rate for demand accesses (Ratio)
system.l2.demandMissRate::total              0.045554                       # miss rate for demand accesses (Ratio)
system.l2.overallMissRate::cpu.mmu.dtb.walker     0.018987                       # miss rate for overall accesses (Ratio)
system.l2.overallMissRate::cpu.mmu.itb.walker     0.031915                       # miss rate for overall accesses (Ratio)
system.l2.overallMissRate::cpu.inst          0.019559                       # miss rate for overall accesses (Ratio)
system.l2.overallMissRate::cpu.data          0.330579                       # miss rate for overall accesses (Ratio)
system.l2.overallMissRate::total             0.045554                       # miss rate for overall accesses (Ratio)
system.l2.blockedCycles::no_mshrs                   0                       # number of cycles access was blocked (Cycle)
system.l2.blockedCycles::no_targets                 0                       # number of cycles access was blocked (Cycle)
system.l2.blockedCauses::no_mshrs                   0                       # number of times access was blocked (Count)
system.l2.blockedCauses::no_targets                 0                       # number of times access was blocked (Count)
system.l2.avgBlocked::no_mshrs                    nan                       # average number of cycles each access was blocked ((Cycle/Count))
system.l2.avgBlocked::no_targets                  nan                       # average number of cycles each access was blocked ((Cycle/Count))
system.l2.writebacks::writebacks                 2204                       # number of writebacks (Count)
system.l2.writebacks::total                      2204                       # number of writebacks (Count)
system.l2.replacements                           5803                       # number of replacements (Count)
system.l2.ReadCleanReq.hits::cpu.inst          123063                       # number of ReadCleanReq hits (Count)
system.l2.ReadCleanReq.hits::total             123063                       # number of ReadCleanReq hits (Count)
system.l2.ReadCleanReq.misses::cpu.inst          2455                       # number of ReadCleanReq misses (Count)
system.l2.ReadCleanReq.misses::total             2455                       # number of ReadCleanReq misses (Count)
system.l2.ReadCleanReq.accesses::cpu.inst       125518                       # number of ReadCleanReq accesses(hits+misses) (Count)
system.l2.ReadCleanReq.accesses::total         125518                       # number of ReadCleanReq accesses(hits+misses) (Count)
system.l2.ReadCleanReq.missRate::cpu.inst     0.019559                       # miss rate for ReadCleanReq accesses (Ratio)
system.l2.ReadCleanReq.missRate::total       0.019559                       # miss rate for ReadCleanReq accesses (Ratio)
system.l2.ReadExReq.hits::cpu.data               2624                       # number of ReadExReq hits (Count)
system.l2.ReadExReq.hits::total                  2624                       # number of ReadExReq hits (Count)
system.l2.ReadExReq.misses::cpu.data             2717                       # number of ReadExReq misses (Count)
system.l2.ReadExReq.misses::total                2717                       # number of ReadExReq misses (Count)
system.l2.ReadExReq.accesses::cpu.data           5341                       # number of ReadExReq accesses(hits+misses) (Count)
system.l2.ReadExReq.accesses::total              5341                       # number of ReadExReq accesses(hits+misses) (Count)
system.l2.ReadExReq.missRate::cpu.data       0.508706                       # miss rate for ReadExReq accesses (Ratio)
system.l2.ReadExReq.missRate::total          0.508706                       # miss rate for ReadExReq accesses (Ratio)
system.l2.ReadSharedReq.hits::cpu.mmu.dtb.walker          310                       # number of ReadSharedReq hits (Count)
system.l2.ReadSharedReq.hits::cpu.mmu.itb.walker          364                       # number of ReadSharedReq hits (Count)
system.l2.ReadSharedReq.hits::cpu.data           5071                       # number of ReadSharedReq hits (Count)
system.l2.ReadSharedReq.hits::total              5745                       # number of ReadSharedReq hits (Count)
system.l2.ReadSharedReq.misses::cpu.mmu.dtb.walker            6                       # number of ReadSharedReq misses (Count)
system.l2.ReadSharedReq.misses::cpu.mmu.itb.walker           12                       # number of ReadSharedReq misses (Count)
system.l2.ReadSharedReq.misses::cpu.data         1083                       # number of ReadSharedReq misses (Count)
system.l2.ReadSharedReq.misses::total            1101                       # number of ReadSharedReq misses (Count)
system.l2.ReadSharedReq.accesses::cpu.mmu.dtb.walker          316                       # number of ReadSharedReq accesses(hits+misses) (Count)
system.l2.ReadSharedReq.accesses::cpu.mmu.itb.walker          376                       # number of ReadSharedReq accesses(hits+misses) (Count)
system.l2.ReadSharedReq.accesses::cpu.data         6154                       # number of ReadSharedReq accesses(hits+misses) (Count)
system.l2.ReadSharedReq.accesses::total          6846                       # number of ReadSharedReq accesses(hits+misses) (Count)
system.l2.ReadSharedReq.missRate::cpu.mmu.dtb.walker     0.018987                       # miss rate for ReadSharedReq accesses (Ratio)
system.l2.ReadSharedReq.missRate::cpu.mmu.itb.walker     0.031915                       # miss rate for ReadSharedReq accesses (Ratio)
system.l2.ReadSharedReq.missRate::cpu.data     0.175983                       # miss rate for ReadSharedReq accesses (Ratio)
system.l2.ReadSharedReq.missRate::total      0.160824                       # miss rate for ReadSharedReq accesses (Ratio)
system.l2.UpgradeReq.hits::cpu.data               177                       # number of UpgradeReq hits (Count)
system.l2.UpgradeReq.hits::total                  177                       # number of UpgradeReq hits (Count)
system.l2.UpgradeReq.misses::cpu.data              18                       # number of UpgradeReq misses (Count)
system.l2.UpgradeReq.misses::total                 18                       # number of UpgradeReq misses (Count)
system.l2.UpgradeReq.accesses::cpu.data           195                       # number of UpgradeReq accesses(hits+misses) (Count)
system.l2.UpgradeReq.accesses::total              195                       # number of UpgradeReq accesses(hits+misses) (Count)
system.l2.UpgradeReq.missRate::cpu.data      0.092308                       # miss rate for UpgradeReq accesses (Ratio)
system.l2.UpgradeReq.missRate::total         0.092308                       # miss rate for UpgradeReq accesses (Ratio)
system.l2.WritebackClean.hits::writebacks       125518                       # number of WritebackClean hits (Count)
system.l2.WritebackClean.hits::total           125518                       # number of WritebackClean hits (Count)
system.l2.WritebackClean.accesses::writebacks       125518                       # number of WritebackClean accesses(hits+misses) (Count)
system.l2.WritebackClean.accesses::total       125518                       # number of WritebackClean accesses(hits+misses) (Count)
system.l2.WritebackDirty.hits::writebacks         9125                       # number of WritebackDirty hits (Count)
system.l2.WritebackDirty.hits::total             9125                       # number of WritebackDirty hits (Count)
system.l2.WritebackDirty.accesses::writebacks         9125                       # number of WritebackDirty accesses(hits+misses) (Count)
system.l2.WritebackDirty.accesses::total         9125                       # number of WritebackDirty accesses(hits+misses) (Count)
system.l2.power_state.pwrStateResidencyTicks::UNDEFINED   3085978500                       # Cumulative time (in ticks) in various power states (Tick)
system.l2.tags.tagsInUse                  7715.121750                       # Average ticks per tags in use ((Tick/Count))
system.l2.tags.totalRefs                        86612                       # Total number of references to valid blocks. (Count)
system.l2.tags.sampledRefs                       6814                       # Sample count of references to valid blocks. (Count)
system.l2.tags.avgRefs                      12.710889                       # Average number of references to valid blocks. ((Count/Count))
system.l2.tags.warmupTick                           0                       # The tick when the warmup percentage was hit. (Tick)
system.l2.tags.occupancies::writebacks     125.475405                       # Average occupied blocks per tick, per requestor ((Count/Tick))
system.l2.tags.occupancies::cpu.mmu.dtb.walker     7.607321                       # Average occupied blocks per tick, per requestor ((Count/Tick))
system.l2.tags.occupancies::cpu.mmu.itb.walker     4.408111                       # Average occupied blocks per tick, per requestor ((Count/Tick))
system.l2.tags.occupancies::cpu.inst      3149.234997                       # Average occupied blocks per tick, per requestor ((Count/Tick))
system.l2.tags.occupancies::cpu.data      4428.395916                       # Average occupied blocks per tick, per requestor ((Count/Tick))
system.l2.tags.avgOccs::writebacks           0.015317                       # Average percentage of cache occupancy ((Ratio/Tick))
system.l2.tags.avgOccs::cpu.mmu.dtb.walker     0.000929                       # Average percentage of cache occupancy ((Ratio/Tick))
system.l2.tags.avgOccs::cpu.mmu.itb.walker     0.000538                       # Average percentage of cache occupancy ((Ratio/Tick))
system.l2.tags.avgOccs::cpu.inst             0.384428                       # Average percentage of cache occupancy ((Ratio/Tick))
system.l2.tags.avgOccs::cpu.data             0.540576                       # Average percentage of cache occupancy ((Ratio/Tick))
system.l2.tags.avgOccs::total                0.941787                       # Average percentage of cache occupancy ((Ratio/Tick))
system.l2.tags.occupanciesTaskId::1024           7872                       # Occupied blocks per task id (Count)
system.l2.tags.ageTaskId_1024::0                   18                       # Occupied blocks per task id, per block age (Count)
system.l2.tags.ageTaskId_1024::1                   95                       # Occupied blocks per task id, per block age (Count)
system.l2.tags.ageTaskId_1024::2                  421                       # Occupied blocks per task id, per block age (Count)
system.l2.tags.ageTaskId_1024::3                 7000                       # Occupied blocks per task id, per block age (Count)
system.l2.tags.ageTaskId_1024::4                  338                       # Occupied blocks per task id, per block age (Count)
system.l2.tags.ratioOccsTaskId::1024         0.960938                       # Ratio of occupied blocks and all blocks, per task id (Ratio)
system.l2.tags.tagAccesses                    1106732                       # Number of tag accesses (Count)
system.l2.tags.dataAccesses                   1106732                       # Number of data accesses (Count)
system.l2.tags.power_state.pwrStateResidencyTicks::UNDEFINED   3085978500                       # Cumulative time (in ticks) in various power states (Tick)
system.mem_ctrls.priorityMinLatency      0.000000000000                       # per QoS priority minimum request to response latency (Second)
system.mem_ctrls.priorityMaxLatency      0.000000000000                       # per QoS priority maximum request to response latency (Second)
system.mem_ctrls.numReadWriteTurnArounds            0                       # Number of turnarounds from READ to WRITE (Count)
system.mem_ctrls.numWriteReadTurnArounds            0                       # Number of turnarounds from WRITE to READ (Count)
system.mem_ctrls.numStayReadState                   0                       # Number of times bus staying in READ state (Count)
system.mem_ctrls.numStayWriteState                  0                       # Number of times bus staying in WRITE state (Count)
system.mem_ctrls.readReqs                           0                       # Number of read requests accepted (Count)
system.mem_ctrls.writeReqs                          0                       # Number of write requests accepted (Count)
system.mem_ctrls.readBursts                         0                       # Number of controller read bursts, including those serviced by the write queue (Count)
system.mem_ctrls.writeBursts                        0                       # Number of controller write bursts, including those merged in the write queue (Count)
system.mem_ctrls.servicedByWrQ                      0                       # Number of controller read bursts serviced by the write queue (Count)
system.mem_ctrls.mergedWrBursts                     0                       # Number of controller write bursts merged with an existing one (Count)
system.mem_ctrls.neitherReadNorWriteReqs            0                       # Number of requests that are neither read nor write (Count)
system.mem_ctrls.avgRdQLen                       0.00                       # Average read queue length when enqueuing ((Count/Tick))
system.mem_ctrls.avgWrQLen                       0.00                       # Average write queue length when enqueuing ((Count/Tick))
system.mem_ctrls.numRdRetry                         0                       # Number of times read queue was full causing retry (Count)
system.mem_ctrls.numWrRetry                         0                       # Number of times write queue was full causing retry (Count)
system.mem_ctrls.readPktSize::0                     0                       # Read request sizes (log2) (Count)
system.mem_ctrls.readPktSize::1                     0                       # Read request sizes (log2) (Count)
system.mem_ctrls.readPktSize::2                     0                       # Read request sizes (log2) (Count)
system.mem_ctrls.readPktSize::3                     0                       # Read request sizes (log2) (Count)
system.mem_ctrls.readPktSize::4                     0                       # Read request sizes (log2) (Count)
system.mem_ctrls.readPktSize::5                     0                       # Read request sizes (log2) (Count)
system.mem_ctrls.readPktSize::6                     0                       # Read request sizes (log2) (Count)
system.mem_ctrls.writePktSize::0                    0                       # Write request sizes (log2) (Count)
system.mem_ctrls.writePktSize::1                    0                       # Write request sizes (log2) (Count)
system.mem_ctrls.writePktSize::2                    0                       # Write request sizes (log2) (Count)
system.mem_ctrls.writePktSize::3                    0                       # Write request sizes (log2) (Count)
system.mem_ctrls.writePktSize::4                    0                       # Write request sizes (log2) (Count)
system.mem_ctrls.writePktSize::5                    0                       # Write request sizes (log2) (Count)
system.mem_ctrls.writePktSize::6                    0                       # Write request sizes (log2) (Count)
system.mem_ctrls.rdQLenPdf::0                       0                       # What read queue length does an incoming req see (Count)
system.mem_ctrls.rdQLenPdf::1                       0                       # What read queue length does an incoming req see (Count)
system.mem_ctrls.rdQLenPdf::2                       0                       # What read queue length does an incoming req see (Count)
system.mem_ctrls.rdQLenPdf::3                       0                       # What read queue length does an incoming req see (Count)
system.mem_ctrls.rdQLenPdf::4                       0                       # What read queue length does an incoming req see (Count)
system.mem_ctrls.rdQLenPdf::5                       0                       # What read queue length does an incoming req see (Count)
system.mem_ctrls.rdQLenPdf::6                       0                       # What read queue length does an incoming req see (Count)
system.mem_ctrls.rdQLenPdf::7                       0                       # What read queue length does an incoming req see (Count)
system.mem_ctrls.rdQLenPdf::8                       0                       # What read queue length does an incoming req see (Count)
system.mem_ctrls.rdQLenPdf::9                       0                       # What read queue length does an incoming req see (Count)
system.mem_ctrls.rdQLenPdf::10                      0                       # What read queue length does an incoming req see (Count)
system.mem_ctrls.rdQLenPdf::11                      0                       # What read queue length does an incoming req see (Count)
system.mem_ctrls.rdQLenPdf::12                      0                       # What read queue length does an incoming req see (Count)
system.mem_ctrls.rdQLenPdf::13                      0                       # What read queue length does an incoming req see (Count)
system.mem_ctrls.rdQLenPdf::14                      0                       # What read queue length does an incoming req see (Count)
system.mem_ctrls.rdQLenPdf::15                      0                       # What read queue length does an incoming req see (Count)
system.mem_ctrls.rdQLenPdf::16                      0                       # What read queue length does an incoming req see (Count)
system.mem_ctrls.rdQLenPdf::17                      0                       # What read queue length does an incoming req see (Count)
system.mem_ctrls.rdQLenPdf::18                      0                       # What read queue length does an incoming req see (Count)
system.mem_ctrls.rdQLenPdf::19                      0                       # What read queue length does an incoming req see (Count)
system.mem_ctrls.rdQLenPdf::20                      0                       # What read queue length does an incoming req see (Count)
system.mem_ctrls.rdQLenPdf::21                      0                       # What read queue length does an incoming req see (Count)
system.mem_ctrls.rdQLenPdf::22                      0                       # What read queue length does an incoming req see (Count)
system.mem_ctrls.rdQLenPdf::23                      0                       # What read queue length does an incoming req see (Count)
system.mem_ctrls.rdQLenPdf::24                      0                       # What read queue length does an incoming req see (Count)
system.mem_ctrls.rdQLenPdf::25                      0                       # What read queue length does an incoming req see (Count)
system.mem_ctrls.rdQLenPdf::26                      0                       # What read queue length does an incoming req see (Count)
system.mem_ctrls.rdQLenPdf::27                      0                       # What read queue length does an incoming req see (Count)
system.mem_ctrls.rdQLenPdf::28                      0                       # What read queue length does an incoming req see (Count)
system.mem_ctrls.rdQLenPdf::29                      0                       # What read queue length does an incoming req see (Count)
system.mem_ctrls.rdQLenPdf::30                      0                       # What read queue length does an incoming req see (Count)
system.mem_ctrls.rdQLenPdf::31                      0                       # What read queue length does an incoming req see (Count)
system.mem_ctrls.wrQLenPdf::0                       0                       # What write queue length does an incoming req see (Count)
system.mem_ctrls.wrQLenPdf::1                       0                       # What write queue length does an incoming req see (Count)
system.mem_ctrls.wrQLenPdf::2                       0                       # What write queue length does an incoming req see (Count)
[...]
system.switch_cpus.exec_context.thread_0.numOps            0                       # Number of ops (including micro ops) committed (Count)
system.switch_cpus.exec_context.thread_0.numIntAluAccesses            0                       # Number of integer alu accesses (Count)
system.switch_cpus.exec_context.thread_0.numFpAluAccesses            0                       # Number of float alu accesses (Count)
system.switch_cpus.exec_context.thread_0.numVecAluAccesses            0                       # Number of vector alu accesses (Count)
system.switch_cpus.exec_context.thread_0.numCallsReturns            0                       # Number of times a function call or return occured (Count)
system.switch_cpus.exec_context.thread_0.numCondCtrlInsts            0                       # Number of instructions that are conditional controls (Count)
system.switch_cpus.exec_context.thread_0.numIntInsts            0                       # Number of integer instructions (Count)
system.switch_cpus.exec_context.thread_0.numFpInsts            0                       # Number of float instructions (Count)
system.switch_cpus.exec_context.thread_0.numVecInsts            0                       # Number of vector instructions (Count)
system.switch_cpus.exec_context.thread_0.numIntRegReads            0                       # Number of times the integer registers were read (Count)
system.switch_cpus.exec_context.thread_0.numIntRegWrites            0                       # Number of times the integer registers were written (Count)
system.switch_cpus.exec_context.thread_0.numFpRegReads            0                       # Number of times the floating registers were read (Count)
system.switch_cpus.exec_context.thread_0.numFpRegWrites            0                       # Number of times the floating registers were written (Count)
system.switch_cpus.exec_context.thread_0.numVecRegReads            0                       # Number of times the vector registers were read (Count)
system.switch_cpus.exec_context.thread_0.numVecRegWrites            0                       # Number of times the vector registers were written (Count)
system.switch_cpus.exec_context.thread_0.numVecPredRegReads            0                       # Number of times the predicate registers were read (Count)
system.switch_cpus.exec_context.thread_0.numVecPredRegWrites            0                       # Number of times the predicate registers were written (Count)
system.switch_cpus.exec_context.thread_0.numMiscRegReads            0                       # Number of times the Misc registers were read (Count)
system.switch_cpus.exec_context.thread_0.numMiscRegWrites            0                       # Number of times the Misc registers were written (Count)
system.switch_cpus.exec_context.thread_0.numMemRefs            0                       # Number of memory refs (Count)
system.switch_cpus.exec_context.thread_0.numLoadInsts            0                       # Number of load instructions (Count)
system.switch_cpus.exec_context.thread_0.numStoreInsts            0                       # Number of store instructions (Count)
system.switch_cpus.exec_context.thread_0.numIdleCycles            0                       # Number of idle cycles (Cycle)
system.switch_cpus.exec_context.thread_0.numBusyCycles            0                       # Number of busy cycles (Cycle)
system.switch_cpus.exec_context.thread_0.notIdleFraction            0                       # Percentage of non-idle cycles (Ratio)
system.switch_cpus.exec_context.thread_0.idleFraction            1                       # Percentage of idle cycles (Ratio)
system.switch_cpus.exec_context.thread_0.statExecutedInstType::No_OpClass            0                       # Class of executed instruction. (Count)
system.switch_cpus.exec_context.thread_0.statExecutedInstType::IntAlu            0                       # Class of executed instruction. (Count)
system.switch_cpus.exec_context.thread_0.statExecutedInstType::IntMult            0                       # Class of executed instruction. (Count)
system.switch_cpus.exec_context.thread_0.statExecutedInstType::IntDiv            0                       # Class of executed instruction. (Count)
system.switch_cpus.exec_context.thread_0.statExecutedInstType::FloatAdd            0                       # Class of executed instruction. (Count)
system.switch_cpus.exec_context.thread_0.statExecutedInstType::FloatCmp            0                       # Class of executed instruction. (Count)
system.switch_cpus.exec_context.thread_0.statExecutedInstType::FloatCvt            0                       # Class of executed instruction. (Count)
system.switch_cpus.exec_context.thread_0.statExecutedInstType::FloatMult            0                       # Class of executed instruction. (Count)
system.switch_cpus.exec_context.thread_0.statExecutedInstType::FloatMultAcc            0                       # Class of executed instruction. (Count)
system.switch_cpus.exec_context.thread_0.statExecutedInstType::FloatDiv            0                       # Class of executed instruction. (Count)
system.switch_cpus.exec_context.thread_0.statExecutedInstType::FloatMisc            0                       # Class of executed instruction. (Count)
system.switch_cpus.exec_context.thread_0.statExecutedInstType::FloatSqrt            0                       # Class of executed instruction. (Count)
system.switch_cpus.exec_context.thread_0.statExecutedInstType::SimdAdd            0                       # Class of executed instruction. (Count)
system.switch_cpus.exec_context.thread_0.statExecutedInstType::SimdAddAcc            0                       # Class of executed instruction. (Count)
system.switch_cpus.exec_context.thread_0.statExecutedInstType::SimdAlu            0                       # Class of executed instruction. (Count)
system.switch_cpus.exec_context.thread_0.statExecutedInstType::SimdCmp            0                       # Class of executed instruction. (Count)
system.switch_cpus.exec_context.thread_0.statExecutedInstType::SimdCvt            0                       # Class of executed instruction. (Count)
system.switch_cpus.exec_context.thread_0.statExecutedInstType::SimdMisc            0                       # Class of executed instruction. (Count)
system.switch_cpus.exec_context.thread_0.statExecutedInstType::SimdMult            0                       # Class of executed instruction. (Count)
system.switch_cpus.exec_context.thread_0.statExecutedInstType::SimdMultAcc            0                       # Class of executed instruction. (Count)
system.switch_cpus.exec_context.thread_0.statExecutedInstType::SimdShift            0                       # Class of executed instruction. (Count)
system.switch_cpus.exec_context.thread_0.statExecutedInstType::SimdShiftAcc            0                       # Class of executed instruction. (Count)
system.switch_cpus.exec_context.thread_0.statExecutedInstType::SimdDiv            0                       # Class of executed instruction. (Count)
system.switch_cpus.exec_context.thread_0.statExecutedInstType::SimdSqrt            0                       # Class of executed instruction. (Count)
system.switch_cpus.exec_context.thread_0.statExecutedInstType::SimdFloatAdd            0                       # Class of executed instruction. (Count)
system.switch_cpus.exec_context.thread_0.statExecutedInstType::SimdFloatAlu            0                       # Class of executed instruction. (Count)
system.switch_cpus.exec_context.thread_0.statExecutedInstType::SimdFloatCmp            0                       # Class of executed instruction. (Count)
system.switch_cpus.exec_context.thread_0.statExecutedInstType::SimdFloatCvt            0                       # Class of executed instruction. (Count)
system.switch_cpus.exec_context.thread_0.statExecutedInstType::SimdFloatDiv            0                       # Class of executed instruction. (Count)
system.switch_cpus.exec_context.thread_0.statExecutedInstType::SimdFloatMisc            0                       # Class of executed instruction. (Count)
system.switch_cpus.exec_context.thread_0.statExecutedInstType::SimdFloatMult            0                       # Class of executed instruction. (Count)
system.switch_cpus.exec_context.thread_0.statExecutedInstType::SimdFloatMultAcc            0                       # Class of executed instruction. (Count)
system.switch_cpus.exec_context.thread_0.statExecutedInstType::SimdFloatSqrt            0                       # Class of executed instruction. (Count)
system.switch_cpus.exec_context.thread_0.statExecutedInstType::SimdReduceAdd            0                       # Class of executed instruction. (Count)
system.switch_cpus.exec_context.thread_0.statExecutedInstType::SimdReduceAlu            0                       # Class of executed instruction. (Count)
system.switch_cpus.exec_context.thread_0.statExecutedInstType::SimdReduceCmp            0                       # Class of executed instruction. (Count)
system.switch_cpus.exec_context.thread_0.statExecutedInstType::SimdFloatReduceAdd            0                       # Class of executed instruction. (Count)
system.switch_cpus.exec_context.thread_0.statExecutedInstType::SimdFloatReduceCmp            0                       # Class of executed instruction. (Count)
system.switch_cpus.exec_context.thread_0.statExecutedInstType::SimdAes            0                       # Class of executed instruction. (Count)
system.switch_cpus.exec_context.thread_0.statExecutedInstType::SimdAesMix            0                       # Class of executed instruction. (Count)
system.switch_cpus.exec_context.thread_0.statExecutedInstType::SimdSha1Hash            0                       # Class of executed instruction. (Count)
system.switch_cpus.exec_context.thread_0.statExecutedInstType::SimdSha1Hash2            0                       # Class of executed instruction. (Count)
system.switch_cpus.exec_context.thread_0.statExecutedInstType::SimdSha256Hash            0                       # Class of executed instruction. (Count)
system.switch_cpus.exec_context.thread_0.statExecutedInstType::SimdSha256Hash2            0                       # Class of executed instruction. (Count)
system.switch_cpus.exec_context.thread_0.statExecutedInstType::SimdShaSigma2            0                       # Class of executed instruction. (Count)
system.switch_cpus.exec_context.thread_0.statExecutedInstType::SimdShaSigma3            0                       # Class of executed instruction. (Count)
system.switch_cpus.exec_context.thread_0.statExecutedInstType::SimdPredAlu            0                       # Class of executed instruction. (Count)
system.switch_cpus.exec_context.thread_0.statExecutedInstType::MemRead            0                       # Class of executed instruction. (Count)
system.switch_cpus.exec_context.thread_0.statExecutedInstType::MemWrite            0                       # Class of executed instruction. (Count)
system.switch_cpus.exec_context.thread_0.statExecutedInstType::FloatMemRead            0                       # Class of executed instruction. (Count)
system.switch_cpus.exec_context.thread_0.statExecutedInstType::FloatMemWrite            0                       # Class of executed instruction. (Count)
system.switch_cpus.exec_context.thread_0.statExecutedInstType::IprAccess            0                       # Class of executed instruction. (Count)
system.switch_cpus.exec_context.thread_0.statExecutedInstType::InstPrefetch            0                       # Class of executed instruction. (Count)
system.switch_cpus.exec_context.thread_0.statExecutedInstType::total            0                       # Class of executed instruction. (Count)
system.switch_cpus.mmu.dtb.rdAccesses               0                       # TLB accesses on read requests (Count)
system.switch_cpus.mmu.dtb.wrAccesses               0                       # TLB accesses on write requests (Count)
system.switch_cpus.mmu.dtb.rdMisses                 0                       # TLB misses on read requests (Count)
system.switch_cpus.mmu.dtb.wrMisses                 0                       # TLB misses on write requests (Count)
system.switch_cpus.mmu.dtb.walker.power_state.pwrStateResidencyTicks::UNDEFINED   3085978500                       # Cumulative time (in ticks) in various power states (Tick)
system.switch_cpus.mmu.itb.rdAccesses               0                       # TLB accesses on read requests (Count)
system.switch_cpus.mmu.itb.wrAccesses               0                       # TLB accesses on write requests (Count)
system.switch_cpus.mmu.itb.rdMisses                 0                       # TLB misses on read requests (Count)
system.switch_cpus.mmu.itb.wrMisses                 0                       # TLB misses on write requests (Count)
system.switch_cpus.mmu.itb.walker.power_state.pwrStateResidencyTicks::UNDEFINED   3085978500                       # Cumulative time (in ticks) in various power states (Tick)
system.switch_cpus.power_state.pwrStateResidencyTicks::OFF   3085978500                       # Cumulative time (in ticks) in various power states (Tick)
system.switch_cpus.thread_0.numInsts                0                       # Number of Instructions committed (Count)
system.switch_cpus.thread_0.numOps                  0                       # Number of Ops committed (Count)
system.switch_cpus.thread_0.numMemRefs              0                       # Number of Memory References (Count)
system.tol2bus.transDist::ReadReq                1448                       # Transaction distribution (Count)
system.tol2bus.transDist::ReadResp             134505                       # Transaction distribution (Count)
system.tol2bus.transDist::WriteReq               1044                       # Transaction distribution (Count)
system.tol2bus.transDist::WriteResp              1044                       # Transaction distribution (Count)
system.tol2bus.transDist::WritebackDirty         9125                       # Transaction distribution (Count)
system.tol2bus.transDist::WritebackClean       125518                       # Transaction distribution (Count)
system.tol2bus.transDist::CleanEvict             3507                       # Transaction distribution (Count)
system.tol2bus.transDist::UpgradeReq              255                       # Transaction distribution (Count)
system.tol2bus.transDist::UpgradeResp             255                       # Transaction distribution (Count)
system.tol2bus.transDist::ReadExReq              5341                       # Transaction distribution (Count)
system.tol2bus.transDist::ReadExResp             5341                       # Transaction distribution (Count)
system.tol2bus.transDist::ReadCleanReq         125518                       # Transaction distribution (Count)
system.tol2bus.transDist::ReadSharedReq          7539                       # Transaction distribution (Count)
system.tol2bus.pktCount_system.cpu.icache.mem_side_port::system.l2.cpu_side_port       376554                       # Packet count per connected requestor and responder (Count)
system.tol2bus.pktCount_system.cpu.dcache.mem_side_port::system.l2.cpu_side_port        40227                       # Packet count per connected requestor and responder (Count)
system.tol2bus.pktCount_system.cpu.itb_walker_cache.mem_side_port::system.l2.cpu_side_port         2298                       # Packet count per connected requestor and responder (Count)
system.tol2bus.pktCount_system.cpu.dtb_walker_cache.mem_side_port::system.l2.cpu_side_port         1361                       # Packet count per connected requestor and responder (Count)
system.tol2bus.pktCount::total                 420440                       # Packet count per connected requestor and responder (Count)
system.tol2bus.pktSize_system.cpu.icache.mem_side_port::system.l2.cpu_side_port     16066304                       # Cumulative packet size per connected requestor and responder (Byte)
system.tol2bus.pktSize_system.cpu.dcache.mem_side_port::system.l2.cpu_side_port      1325050                       # Cumulative packet size per connected requestor and responder (Byte)
system.tol2bus.pktSize_system.cpu.itb_walker_cache.mem_side_port::system.l2.cpu_side_port        53632                       # Cumulative packet size per connected requestor and responder (Byte)
system.tol2bus.pktSize_system.cpu.dtb_walker_cache.mem_side_port::system.l2.cpu_side_port        33216                       # Cumulative packet size per connected requestor and responder (Byte)
system.tol2bus.pktSize::total                17478202                       # Cumulative packet size per connected requestor and responder (Byte)
system.tol2bus.snoops                            7404                       # Total snoops (Count)
system.tol2bus.snoopTraffic                    141056                       # Total snoop traffic (Byte)
system.tol2bus.snoopFanout::samples            148256                       # Request fanout histogram (Count)
system.tol2bus.snoopFanout::mean             0.021712                       # Request fanout histogram (Count)
system.tol2bus.snoopFanout::stdev            0.174784                       # Request fanout histogram (Count)
system.tol2bus.snoopFanout::underflows              0      0.00%      0.00% # Request fanout histogram (Count)
system.tol2bus.snoopFanout::0                  145727     98.29%     98.29% # Request fanout histogram (Count)
system.tol2bus.snoopFanout::1                    1839      1.24%     99.53% # Request fanout histogram (Count)
system.tol2bus.snoopFanout::2                     690      0.47%    100.00% # Request fanout histogram (Count)
system.tol2bus.snoopFanout::3                       0      0.00%    100.00% # Request fanout histogram (Count)
system.tol2bus.snoopFanout::4                       0      0.00%    100.00% # Request fanout histogram (Count)
system.tol2bus.snoopFanout::overflows               0      0.00%    100.00% # Request fanout histogram (Count)
system.tol2bus.snoopFanout::min_value               0                       # Request fanout histogram (Count)
system.tol2bus.snoopFanout::max_value               2                       # Request fanout histogram (Count)
system.tol2bus.snoopFanout::total              148256                       # Request fanout histogram (Count)
system.tol2bus.power_state.pwrStateResidencyTicks::UNDEFINED   3085978500                       # Cumulative time (in ticks) in various power states (Tick)
system.tol2bus.snoop_filter.totRequests        276803                       # Total number of requests made to the snoop filter. (Count)
system.tol2bus.snoop_filter.hitSingleRequests       137577                       # Number of requests hitting in the snoop filter with a single holder of the requested data. (Count)
system.tol2bus.snoop_filter.hitMultiRequests         2348                       # Number of requests hitting in the snoop filter with multiple (>1) holders of the requested data. (Count)
system.tol2bus.snoop_filter.totSnoops             792                       # Total number of snoops made to the snoop filter. (Count)
system.tol2bus.snoop_filter.hitSingleSnoops          770                       # Number of snoops hitting in the snoop filter with a single holder of the requested data. (Count)
system.tol2bus.snoop_filter.hitMultiSnoops           22                       # Number of snoops hitting in the snoop filter with multiple (>1) holders of the requested data. (Count)
system.voltage_domain.voltage                       1                       # Voltage in Volts (Volt)
system.workload.inst.arm                            0                       # number of arm instructions executed (Count)
system.workload.inst.quiesce                       69                       # number of quiesce instructions executed (Count)

---------- End Simulation Statistics   ----------

