---------- Begin Simulation Statistics ----------
simSeconds                                   0.001267                       # Number of seconds simulated (Second)
simTicks                                   1267102500                       # Number of ticks simulated (Tick)
finalTick                                4831717680500                       # Number of ticks from beginning of simulation (restored from checkpoints and never reset) (Tick)
simFreq                                  1000000000000                       # The number of ticks per simulated second ((Tick/Second))
hostSeconds                                      0.83                       # Real time elapsed on the host (Second)
hostTickRate                               1531005743                       # The number of ticks simulated per host second (ticks/s) ((Tick/Second))
hostMemory                                    1761332                       # Number of bytes of host memory used (Byte)
simInsts                                    275959150                       # Number of instructions simulated (Count)
simOps                                      700447683                       # Number of ops (including micro ops) simulated (Count)
hostInstRate                                333406868                       # Simulator instruction rate (inst/s) ((Count/Second))
hostOpRate                                  846256953                       # Simulator op (including micro ops) rate (op/s) ((Count/Second))
system.apicbridge.power_state.pwrStateResidencyTicks::UNDEFINED   1467879500                       # Cumulative time (in ticks) in various power states (Tick)
system.bridge.power_state.pwrStateResidencyTicks::UNDEFINED   1467879500                       # Cumulative time (in ticks) in various power states (Tick)
system.clk_domain.clock                           313                       # Clock period in ticks (Tick)
system.cpu0.numCycles                         2942220                       # Number of cpu cycles simulated (Cycle)
system.cpu0.numWorkItemsStarted                     0                       # Number of work items this cpu started (Count)
system.cpu0.numWorkItemsCompleted                   0                       # Number of work items this cpu completed (Count)
system.cpu0.dcache.demandHits::cpu0.data         8785                       # number of demand (read+write) hits (Count)
system.cpu0.dcache.demandHits::total             8785                       # number of demand (read+write) hits (Count)
system.cpu0.dcache.overallHits::cpu0.data         8787                       # number of overall hits (Count)
system.cpu0.dcache.overallHits::total            8787                       # number of overall hits (Count)
system.cpu0.dcache.demandMisses::cpu0.data          247                       # number of demand (read+write) misses (Count)
system.cpu0.dcache.demandMisses::total            247                       # number of demand (read+write) misses (Count)
system.cpu0.dcache.overallMisses::cpu0.data          264                       # number of overall misses (Count)
system.cpu0.dcache.overallMisses::total           264                       # number of overall misses (Count)
system.cpu0.dcache.demandAccesses::cpu0.data         9032                       # number of demand (read+write) accesses (Count)
system.cpu0.dcache.demandAccesses::total         9032                       # number of demand (read+write) accesses (Count)
system.cpu0.dcache.overallAccesses::cpu0.data         9051                       # number of overall (read+write) accesses (Count)
system.cpu0.dcache.overallAccesses::total         9051                       # number of overall (read+write) accesses (Count)
system.cpu0.dcache.demandMissRate::cpu0.data     0.027347                       # miss rate for demand accesses (Ratio)
system.cpu0.dcache.demandMissRate::total     0.027347                       # miss rate for demand accesses (Ratio)
system.cpu0.dcache.overallMissRate::cpu0.data     0.029168                       # miss rate for overall accesses (Ratio)
system.cpu0.dcache.overallMissRate::total     0.029168                       # miss rate for overall accesses (Ratio)
system.cpu0.dcache.blockedCycles::no_mshrs            0                       # number of cycles access was blocked (Cycle)
system.cpu0.dcache.blockedCycles::no_targets            0                       # number of cycles access was blocked (Cycle)
system.cpu0.dcache.blockedCauses::no_mshrs            0                       # number of times access was blocked (Count)
system.cpu0.dcache.blockedCauses::no_targets            0                       # number of times access was blocked (Count)
system.cpu0.dcache.avgBlocked::no_mshrs           nan                       # average number of cycles each access was blocked ((Cycle/Count))
system.cpu0.dcache.avgBlocked::no_targets          nan                       # average number of cycles each access was blocked ((Cycle/Count))
system.cpu0.dcache.writebacks::writebacks           24                       # number of writebacks (Count)
system.cpu0.dcache.writebacks::total               24                       # number of writebacks (Count)
system.cpu0.dcache.replacements                    38                       # number of replacements (Count)
system.cpu0.dcache.LockedRMWReadReq.hits::cpu0.data           94                       # number of LockedRMWReadReq hits (Count)
system.cpu0.dcache.LockedRMWReadReq.hits::total           94                       # number of LockedRMWReadReq hits (Count)
system.cpu0.dcache.LockedRMWReadReq.misses::cpu0.data           90                       # number of LockedRMWReadReq misses (Count)
system.cpu0.dcache.LockedRMWReadReq.misses::total           90                       # number of LockedRMWReadReq misses (Count)
system.cpu0.dcache.LockedRMWReadReq.accesses::cpu0.data          184                       # number of LockedRMWReadReq accesses(hits+misses) (Count)
system.cpu0.dcache.LockedRMWReadReq.accesses::total          184                       # number of LockedRMWReadReq accesses(hits+misses) (Count)
system.cpu0.dcache.LockedRMWReadReq.missRate::cpu0.data     0.489130                       # miss rate for LockedRMWReadReq accesses (Ratio)
system.cpu0.dcache.LockedRMWReadReq.missRate::total     0.489130                       # miss rate for LockedRMWReadReq accesses (Ratio)
system.cpu0.dcache.LockedRMWWriteReq.hits::cpu0.data          184                       # number of LockedRMWWriteReq hits (Count)
system.cpu0.dcache.LockedRMWWriteReq.hits::total          184                       # number of LockedRMWWriteReq hits (Count)
system.cpu0.dcache.LockedRMWWriteReq.accesses::cpu0.data          184                       # number of LockedRMWWriteReq accesses(hits+misses) (Count)
system.cpu0.dcache.LockedRMWWriteReq.accesses::total          184                       # number of LockedRMWWriteReq accesses(hits+misses) (Count)
system.cpu0.dcache.ReadReq.hits::cpu0.data         5697                       # number of ReadReq hits (Count)
system.cpu0.dcache.ReadReq.hits::total           5697                       # number of ReadReq hits (Count)
system.cpu0.dcache.ReadReq.misses::cpu0.data          151                       # number of ReadReq misses (Count)
system.cpu0.dcache.ReadReq.misses::total          151                       # number of ReadReq misses (Count)
system.cpu0.dcache.ReadReq.accesses::cpu0.data         5848                       # number of ReadReq accesses(hits+misses) (Count)
system.cpu0.dcache.ReadReq.accesses::total         5848                       # number of ReadReq accesses(hits+misses) (Count)
system.cpu0.dcache.ReadReq.missRate::cpu0.data     0.025821                       # miss rate for ReadReq accesses (Ratio)
system.cpu0.dcache.ReadReq.missRate::total     0.025821                       # miss rate for ReadReq accesses (Ratio)
system.cpu0.dcache.SoftPFReq.hits::cpu0.data            2                       # number of SoftPFReq hits (Count)
system.cpu0.dcache.SoftPFReq.hits::total            2                       # number of SoftPFReq hits (Count)
system.cpu0.dcache.SoftPFReq.misses::cpu0.data           17                       # number of SoftPFReq misses (Count)
system.cpu0.dcache.SoftPFReq.misses::total           17                       # number of SoftPFReq misses (Count)
system.cpu0.dcache.SoftPFReq.accesses::cpu0.data           19                       # number of SoftPFReq accesses(hits+misses) (Count)
system.cpu0.dcache.SoftPFReq.accesses::total           19                       # number of SoftPFReq accesses(hits+misses) (Count)
system.cpu0.dcache.SoftPFReq.missRate::cpu0.data     0.894737                       # miss rate for SoftPFReq accesses (Ratio)
system.cpu0.dcache.SoftPFReq.missRate::total     0.894737                       # miss rate for SoftPFReq accesses (Ratio)
system.cpu0.dcache.WriteReq.hits::cpu0.data         3088                       # number of WriteReq hits (Count)
system.cpu0.dcache.WriteReq.hits::total          3088                       # number of WriteReq hits (Count)
system.cpu0.dcache.WriteReq.misses::cpu0.data           96                       # number of WriteReq misses (Count)
system.cpu0.dcache.WriteReq.misses::total           96                       # number of WriteReq misses (Count)
system.cpu0.dcache.WriteReq.accesses::cpu0.data         3184                       # number of WriteReq accesses(hits+misses) (Count)
system.cpu0.dcache.WriteReq.accesses::total         3184                       # number of WriteReq accesses(hits+misses) (Count)
system.cpu0.dcache.WriteReq.missRate::cpu0.data     0.030151                       # miss rate for WriteReq accesses (Ratio)
system.cpu0.dcache.WriteReq.missRate::total     0.030151                       # miss rate for WriteReq accesses (Ratio)
system.cpu0.dcache.power_state.pwrStateResidencyTicks::UNDEFINED   1467879500                       # Cumulative time (in ticks) in various power states (Tick)
system.cpu0.dcache.tags.tagsInUse        15577.087215                       # Average ticks per tags in use ((Tick/Count))
system.cpu0.dcache.tags.totalRefs                5968                       # Total number of references to valid blocks. (Count)
system.cpu0.dcache.tags.sampledRefs               289                       # Sample count of references to valid blocks. (Count)
system.cpu0.dcache.tags.avgRefs             20.650519                       # Average number of references to valid blocks. ((Count/Count))
system.cpu0.dcache.tags.warmupTick                  0                       # The tick when the warmup percentage was hit. (Tick)
system.cpu0.dcache.tags.occupancies::cpu0.data 15577.087215                       # Average occupied blocks per tick, per requestor ((Count/Tick))
system.cpu0.dcache.tags.avgOccs::cpu0.data     0.950750                       # Average percentage of cache occupancy ((Ratio/Tick))
system.cpu0.dcache.tags.avgOccs::total       0.950750                       # Average percentage of cache occupancy ((Ratio/Tick))
system.cpu0.dcache.tags.occupanciesTaskId::1024        15549                       # Occupied blocks per task id (Count)
system.cpu0.dcache.tags.ageTaskId_1024::0            3                       # Occupied blocks per task id, per block age (Count)
system.cpu0.dcache.tags.ageTaskId_1024::2           24                       # Occupied blocks per task id, per block age (Count)
system.cpu0.dcache.tags.ageTaskId_1024::3         4031                       # Occupied blocks per task id, per block age (Count)
system.cpu0.dcache.tags.ageTaskId_1024::4        11491                       # Occupied blocks per task id, per block age (Count)
system.cpu0.dcache.tags.ratioOccsTaskId::1024     0.949036                       # Ratio of occupied blocks and all blocks, per task id (Ratio)
system.cpu0.dcache.tags.tagAccesses             75577                       # Number of tag accesses (Count)
system.cpu0.dcache.tags.dataAccesses            75577                       # Number of data accesses (Count)
system.cpu0.dcache.tags.power_state.pwrStateResidencyTicks::UNDEFINED   1467879500                       # Cumulative time (in ticks) in various power states (Tick)
system.cpu0.dtb_walker_cache.blockedCycles::no_mshrs            0                       # number of cycles access was blocked (Cycle)
system.cpu0.dtb_walker_cache.blockedCycles::no_targets            0                       # number of cycles access was blocked (Cycle)
system.cpu0.dtb_walker_cache.blockedCauses::no_mshrs            0                       # number of times access was blocked (Count)
system.cpu0.dtb_walker_cache.blockedCauses::no_targets            0                       # number of times access was blocked (Count)
system.cpu0.dtb_walker_cache.avgBlocked::no_mshrs          nan                       # average number of cycles each access was blocked ((Cycle/Count))
system.cpu0.dtb_walker_cache.avgBlocked::no_targets          nan                       # average number of cycles each access was blocked ((Cycle/Count))
system.cpu0.dtb_walker_cache.replacements            0                       # number of replacements (Count)
system.cpu0.dtb_walker_cache.power_state.pwrStateResidencyTicks::UNDEFINED   1467879500                       # Cumulative time (in ticks) in various power states (Tick)
system.cpu0.dtb_walker_cache.tags.tagsInUse           12                       # Average ticks per tags in use ((Tick/Count))
system.cpu0.dtb_walker_cache.tags.totalRefs            0                       # Total number of references to valid blocks. (Count)
system.cpu0.dtb_walker_cache.tags.sampledRefs            0                       # Sample count of references to valid blocks. (Count)
system.cpu0.dtb_walker_cache.tags.avgRefs          nan                       # Average number of references to valid blocks. ((Count/Count))
system.cpu0.dtb_walker_cache.tags.warmupTick            0                       # The tick when the warmup percentage was hit. (Tick)
system.cpu0.dtb_walker_cache.tags.occupancies::cpu0.mmu.dtb.walker           12                       # Average occupied blocks per tick, per requestor ((Count/Tick))
system.cpu0.dtb_walker_cache.tags.avgOccs::cpu0.mmu.dtb.walker     0.750000                       # Average percentage of cache occupancy ((Ratio/Tick))
system.cpu0.dtb_walker_cache.tags.avgOccs::total     0.750000                       # Average percentage of cache occupancy ((Ratio/Tick))
system.cpu0.dtb_walker_cache.tags.occupanciesTaskId::1024           12                       # Occupied blocks per task id (Count)
system.cpu0.dtb_walker_cache.tags.ageTaskId_1024::3           11                       # Occupied blocks per task id, per block age (Count)
system.cpu0.dtb_walker_cache.tags.ageTaskId_1024::4            1                       # Occupied blocks per task id, per block age (Count)
system.cpu0.dtb_walker_cache.tags.ratioOccsTaskId::1024     0.750000                       # Ratio of occupied blocks and all blocks, per task id (Ratio)
system.cpu0.dtb_walker_cache.tags.tagAccesses            0                       # Number of tag accesses (Count)
system.cpu0.dtb_walker_cache.tags.dataAccesses            0                       # Number of data accesses (Count)
system.cpu0.dtb_walker_cache.tags.power_state.pwrStateResidencyTicks::UNDEFINED   1467879500                       # Cumulative time (in ticks) in various power states (Tick)
system.cpu0.exec_context.thread_0.numInsts        18471                       # Number of instructions committed (Count)
system.cpu0.exec_context.thread_0.numOps        39964                       # Number of ops (including micro ops) committed (Count)
system.cpu0.exec_context.thread_0.numIntAluAccesses        38877                       # Number of integer alu accesses (Count)
system.cpu0.exec_context.thread_0.numFpAluAccesses            0                       # Number of float alu accesses (Count)
system.cpu0.exec_context.thread_0.numVecAluAccesses            0                       # Number of vector alu accesses (Count)
system.cpu0.exec_context.thread_0.numCallsReturns         1262                       # Number of times a function call or return occured (Count)
system.cpu0.exec_context.thread_0.numCondCtrlInsts         2277                       # Number of instructions that are conditional controls (Count)
system.cpu0.exec_context.thread_0.numIntInsts        38877                       # Number of integer instructions (Count)
system.cpu0.exec_context.thread_0.numFpInsts            0                       # Number of float instructions (Count)
system.cpu0.exec_context.thread_0.numVecInsts            0                       # Number of vector instructions (Count)
system.cpu0.exec_context.thread_0.numIntRegReads        50456                       # Number of times the integer registers were read (Count)
system.cpu0.exec_context.thread_0.numIntRegWrites        29040                       # Number of times the integer registers were written (Count)
system.cpu0.exec_context.thread_0.numFpRegReads            0                       # Number of times the floating registers were read (Count)
system.cpu0.exec_context.thread_0.numFpRegWrites            0                       # Number of times the floating registers were written (Count)
system.cpu0.exec_context.thread_0.numVecRegReads            0                       # Number of times the vector registers were read (Count)
system.cpu0.exec_context.thread_0.numVecRegWrites            0                       # Number of times the vector registers were written (Count)
system.cpu0.exec_context.thread_0.numVecPredRegReads            0                       # Number of times the predicate registers were read (Count)
system.cpu0.exec_context.thread_0.numVecPredRegWrites            0                       # Number of times the predicate registers were written (Count)
system.cpu0.exec_context.thread_0.numCCRegReads        16950                       # Number of times the CC registers were read (Count)
system.cpu0.exec_context.thread_0.numCCRegWrites        12548                       # Number of times the CC registers were written (Count)
system.cpu0.exec_context.thread_0.numMiscRegReads        17019                       # Number of times the Misc registers were read (Count)
system.cpu0.exec_context.thread_0.numMiscRegWrites          551                       # Number of times the Misc registers were written (Count)
system.cpu0.exec_context.thread_0.numMemRefs         9450                       # Number of memory refs (Count)
system.cpu0.exec_context.thread_0.numLoadInsts         6081                       # Number of load instructions (Count)
system.cpu0.exec_context.thread_0.numStoreInsts         3369                       # Number of store instructions (Count)
system.cpu0.exec_context.thread_0.numIdleCycles 2889966.129652                       # Number of idle cycles (Cycle)
system.cpu0.exec_context.thread_0.numBusyCycles 52253.870348                       # Number of busy cycles (Cycle)
system.cpu0.exec_context.thread_0.notIdleFraction     0.017760                       # Percentage of non-idle cycles (Ratio)
system.cpu0.exec_context.thread_0.idleFraction     0.982240                       # Percentage of idle cycles (Ratio)
system.cpu0.exec_context.thread_0.numBranches         4014                       # Number of branches fetched (Count)
system.cpu0.exec_context.thread_0.statExecutedInstType::No_OpClass           50      0.13%      0.13% # Class of executed instruction. (Count)
system.cpu0.exec_context.thread_0.statExecutedInstType::IntAlu        30456     76.21%     76.33% # Class of executed instruction. (Count)
system.cpu0.exec_context.thread_0.statExecutedInstType::IntMult           23      0.06%     76.39% # Class of executed instruction. (Count)
system.cpu0.exec_context.thread_0.statExecutedInstType::IntDiv            0      0.00%     76.39% # Class of executed instruction. (Count)
system.cpu0.exec_context.thread_0.statExecutedInstType::FloatAdd            0      0.00%     76.39% # Class of executed instruction. (Count)
system.cpu0.exec_context.thread_0.statExecutedInstType::FloatCmp            0      0.00%     76.39% # Class of executed instruction. (Count)
system.cpu0.exec_context.thread_0.statExecutedInstType::FloatCvt            0      0.00%     76.39% # Class of executed instruction. (Count)
system.cpu0.exec_context.thread_0.statExecutedInstType::FloatMult            0      0.00%     76.39% # Class of executed instruction. (Count)
system.cpu0.exec_context.thread_0.statExecutedInstType::FloatMultAcc            0      0.00%     76.39% # Class of executed instruction. (Count)
system.cpu0.exec_context.thread_0.statExecutedInstType::FloatDiv            0      0.00%     76.39% # Class of executed instruction. (Count)
system.cpu0.exec_context.thread_0.statExecutedInstType::FloatMisc            0      0.00%     76.39% # Class of executed instruction. (Count)
system.cpu0.exec_context.thread_0.statExecutedInstType::FloatSqrt            0      0.00%     76.39% # Class of executed instruction. (Count)
system.cpu0.exec_context.thread_0.statExecutedInstType::SimdAdd            0      0.00%     76.39% # Class of executed instruction. (Count)
system.cpu0.exec_context.thread_0.statExecutedInstType::SimdAddAcc            0      0.00%     76.39% # Class of executed instruction. (Count)
system.cpu0.exec_context.thread_0.statExecutedInstType::SimdAlu            0      0.00%     76.39% # Class of executed instruction. (Count)
system.cpu0.exec_context.thread_0.statExecutedInstType::SimdCmp            0      0.00%     76.39% # Class of executed instruction. (Count)
system.cpu0.exec_context.thread_0.statExecutedInstType::SimdCvt            0      0.00%     76.39% # Class of executed instruction. (Count)
system.cpu0.exec_context.thread_0.statExecutedInstType::SimdMisc            0      0.00%     76.39% # Class of executed instruction. (Count)
system.cpu0.exec_context.thread_0.statExecutedInstType::SimdMult            0      0.00%     76.39% # Class of executed instruction. (Count)
system.cpu0.exec_context.thread_0.statExecutedInstType::SimdMultAcc            0      0.00%     76.39% # Class of executed instruction. (Count)
system.cpu0.exec_context.thread_0.statExecutedInstType::SimdShift            0      0.00%     76.39% # Class of executed instruction. (Count)
system.cpu0.exec_context.thread_0.statExecutedInstType::SimdShiftAcc            0      0.00%     76.39% # Class of executed instruction. (Count)
system.cpu0.exec_context.thread_0.statExecutedInstType::SimdDiv            0      0.00%     76.39% # Class of executed instruction. (Count)
system.cpu0.exec_context.thread_0.statExecutedInstType::SimdSqrt            0      0.00%     76.39% # Class of executed instruction. (Count)
system.cpu0.exec_context.thread_0.statExecutedInstType::SimdFloatAdd            0      0.00%     76.39% # Class of executed instruction. (Count)
system.cpu0.exec_context.thread_0.statExecutedInstType::SimdFloatAlu            0      0.00%     76.39% # Class of executed instruction. (Count)
system.cpu0.exec_context.thread_0.statExecutedInstType::SimdFloatCmp            0      0.00%     76.39% # Class of executed instruction. (Count)
system.cpu0.exec_context.thread_0.statExecutedInstType::SimdFloatCvt            0      0.00%     76.39% # Class of executed instruction. (Count)
system.cpu0.exec_context.thread_0.statExecutedInstType::SimdFloatDiv            0      0.00%     76.39% # Class of executed instruction. (Count)
system.cpu0.exec_context.thread_0.statExecutedInstType::SimdFloatMisc            0      0.00%     76.39% # Class of executed instruction. (Count)
system.cpu0.exec_context.thread_0.statExecutedInstType::SimdFloatMult            0      0.00%     76.39% # Class of executed instruction. (Count)
system.cpu0.exec_context.thread_0.statExecutedInstType::SimdFloatMultAcc            0      0.00%     76.39% # Class of executed instruction. (Count)
system.cpu0.exec_context.thread_0.statExecutedInstType::SimdFloatSqrt            0      0.00%     76.39% # Class of executed instruction. (Count)
system.cpu0.exec_context.thread_0.statExecutedInstType::SimdReduceAdd            0      0.00%     76.39% # Class of executed instruction. (Count)
system.cpu0.exec_context.thread_0.statExecutedInstType::SimdReduceAlu            0      0.00%     76.39% # Class of executed instruction. (Count)
system.cpu0.exec_context.thread_0.statExecutedInstType::SimdReduceCmp            0      0.00%     76.39% # Class of executed instruction. (Count)
system.cpu0.exec_context.thread_0.statExecutedInstType::SimdFloatReduceAdd            0      0.00%     76.39% # Class of executed instruction. (Count)
system.cpu0.exec_context.thread_0.statExecutedInstType::SimdFloatReduceCmp            0      0.00%     76.39% # Class of executed instruction. (Count)
system.cpu0.exec_context.thread_0.statExecutedInstType::SimdAes            0      0.00%     76.39% # Class of executed instruction. (Count)
system.cpu0.exec_context.thread_0.statExecutedInstType::SimdAesMix            0      0.00%     76.39% # Class of executed instruction. (Count)
system.cpu0.exec_context.thread_0.statExecutedInstType::SimdSha1Hash            0      0.00%     76.39% # Class of executed instruction. (Count)
system.cpu0.exec_context.thread_0.statExecutedInstType::SimdSha1Hash2            0      0.00%     76.39% # Class of executed instruction. (Count)
system.cpu0.exec_context.thread_0.statExecutedInstType::SimdSha256Hash            0      0.00%     76.39% # Class of executed instruction. (Count)
system.cpu0.exec_context.thread_0.statExecutedInstType::SimdSha256Hash2            0      0.00%     76.39% # Class of executed instruction. (Count)
system.cpu0.exec_context.thread_0.statExecutedInstType::SimdShaSigma2            0      0.00%     76.39% # Class of executed instruction. (Count)
system.cpu0.exec_context.thread_0.statExecutedInstType::SimdShaSigma3            0      0.00%     76.39% # Class of executed instruction. (Count)
system.cpu0.exec_context.thread_0.statExecutedInstType::SimdPredAlu            0      0.00%     76.39% # Class of executed instruction. (Count)
system.cpu0.exec_context.thread_0.statExecutedInstType::MemRead         6066     15.18%     91.57% # Class of executed instruction. (Count)
system.cpu0.exec_context.thread_0.statExecutedInstType::MemWrite         3369      8.43%    100.00% # Class of executed instruction. (Count)
system.cpu0.exec_context.thread_0.statExecutedInstType::FloatMemRead            0      0.00%    100.00% # Class of executed instruction. (Count)
system.cpu0.exec_context.thread_0.statExecutedInstType::FloatMemWrite            0      0.00%    100.00% # Class of executed instruction. (Count)
system.cpu0.exec_context.thread_0.statExecutedInstType::IprAccess            0      0.00%    100.00% # Class of executed instruction. (Count)
system.cpu0.exec_context.thread_0.statExecutedInstType::InstPrefetch            0      0.00%    100.00% # Class of executed instruction. (Count)
system.cpu0.exec_context.thread_0.statExecutedInstType::total        39964                       # Class of executed instruction. (Count)
system.cpu0.icache.demandHits::cpu0.inst        23902                       # number of demand (read+write) hits (Count)
system.cpu0.icache.demandHits::total            23902                       # number of demand (read+write) hits (Count)
system.cpu0.icache.overallHits::cpu0.inst        23902                       # number of overall hits (Count)
system.cpu0.icache.overallHits::total           23902                       # number of overall hits (Count)
system.cpu0.icache.demandMisses::cpu0.inst           57                       # number of demand (read+write) misses (Count)
system.cpu0.icache.demandMisses::total             57                       # number of demand (read+write) misses (Count)
system.cpu0.icache.overallMisses::cpu0.inst           57                       # number of overall misses (Count)
system.cpu0.icache.overallMisses::total            57                       # number of overall misses (Count)
system.cpu0.icache.demandAccesses::cpu0.inst        23959                       # number of demand (read+write) accesses (Count)
system.cpu0.icache.demandAccesses::total        23959                       # number of demand (read+write) accesses (Count)
system.cpu0.icache.overallAccesses::cpu0.inst        23959                       # number of overall (read+write) accesses (Count)
system.cpu0.icache.overallAccesses::total        23959                       # number of overall (read+write) accesses (Count)
system.cpu0.icache.demandMissRate::cpu0.inst     0.002379                       # miss rate for demand accesses (Ratio)
system.cpu0.icache.demandMissRate::total     0.002379                       # miss rate for demand accesses (Ratio)
system.cpu0.icache.overallMissRate::cpu0.inst     0.002379                       # miss rate for overall accesses (Ratio)
system.cpu0.icache.overallMissRate::total     0.002379                       # miss rate for overall accesses (Ratio)
system.cpu0.icache.blockedCycles::no_mshrs            0                       # number of cycles access was blocked (Cycle)
system.cpu0.icache.blockedCycles::no_targets            0                       # number of cycles access was blocked (Cycle)
system.cpu0.icache.blockedCauses::no_mshrs            0                       # number of times access was blocked (Count)
system.cpu0.icache.blockedCauses::no_targets            0                       # number of times access was blocked (Count)
system.cpu0.icache.avgBlocked::no_mshrs           nan                       # average number of cycles each access was blocked ((Cycle/Count))
system.cpu0.icache.avgBlocked::no_targets          nan                       # average number of cycles each access was blocked ((Cycle/Count))
system.cpu0.icache.writebacks::writebacks           57                       # number of writebacks (Count)
system.cpu0.icache.writebacks::total               57                       # number of writebacks (Count)
system.cpu0.icache.replacements                    57                       # number of replacements (Count)
system.cpu0.icache.ReadReq.hits::cpu0.inst        23902                       # number of ReadReq hits (Count)
system.cpu0.icache.ReadReq.hits::total          23902                       # number of ReadReq hits (Count)
system.cpu0.icache.ReadReq.misses::cpu0.inst           57                       # number of ReadReq misses (Count)
system.cpu0.icache.ReadReq.misses::total           57                       # number of ReadReq misses (Count)
system.cpu0.icache.ReadReq.accesses::cpu0.inst        23959                       # number of ReadReq accesses(hits+misses) (Count)
system.cpu0.icache.ReadReq.accesses::total        23959                       # number of ReadReq accesses(hits+misses) (Count)
system.cpu0.icache.ReadReq.missRate::cpu0.inst     0.002379                       # miss rate for ReadReq accesses (Ratio)
system.cpu0.icache.ReadReq.missRate::total     0.002379                       # miss rate for ReadReq accesses (Ratio)
system.cpu0.icache.power_state.pwrStateResidencyTicks::UNDEFINED   1467879500                       # Cumulative time (in ticks) in various power states (Tick)
system.cpu0.icache.tags.tagsInUse                1024                       # Average ticks per tags in use ((Tick/Count))
system.cpu0.icache.tags.totalRefs                8356                       # Total number of references to valid blocks. (Count)
system.cpu0.icache.tags.sampledRefs                57                       # Sample count of references to valid blocks. (Count)
system.cpu0.icache.tags.avgRefs            146.596491                       # Average number of references to valid blocks. ((Count/Count))
system.cpu0.icache.tags.warmupTick                  0                       # The tick when the warmup percentage was hit. (Tick)
system.cpu0.icache.tags.occupancies::cpu0.inst         1024                       # Average occupied blocks per tick, per requestor ((Count/Tick))
system.cpu0.icache.tags.avgOccs::cpu0.inst            1                       # Average percentage of cache occupancy ((Ratio/Tick))
system.cpu0.icache.tags.avgOccs::total              1                       # Average percentage of cache occupancy ((Ratio/Tick))
system.cpu0.icache.tags.occupanciesTaskId::1024         1024                       # Occupied blocks per task id (Count)
system.cpu0.icache.tags.ageTaskId_1024::0            1                       # Occupied blocks per task id, per block age (Count)
system.cpu0.icache.tags.ageTaskId_1024::2           19                       # Occupied blocks per task id, per block age (Count)
system.cpu0.icache.tags.ageTaskId_1024::3          994                       # Occupied blocks per task id, per block age (Count)
system.cpu0.icache.tags.ageTaskId_1024::4           10                       # Occupied blocks per task id, per block age (Count)
system.cpu0.icache.tags.ratioOccsTaskId::1024            1                       # Ratio of occupied blocks and all blocks, per task id (Ratio)
system.cpu0.icache.tags.tagAccesses             47975                       # Number of tag accesses (Count)
system.cpu0.icache.tags.dataAccesses            47975                       # Number of data accesses (Count)
system.cpu0.icache.tags.power_state.pwrStateResidencyTicks::UNDEFINED   1467879500                       # Cumulative time (in ticks) in various power states (Tick)
system.cpu0.interrupts.clk_domain.clock          8000                       # Clock period in ticks (Tick)
system.cpu0.itb_walker_cache.blockedCycles::no_mshrs            0                       # number of cycles access was blocked (Cycle)
system.cpu0.itb_walker_cache.blockedCycles::no_targets            0                       # number of cycles access was blocked (Cycle)
system.cpu0.itb_walker_cache.blockedCauses::no_mshrs            0                       # number of times access was blocked (Count)
system.cpu0.itb_walker_cache.blockedCauses::no_targets            0                       # number of times access was blocked (Count)
system.cpu0.itb_walker_cache.avgBlocked::no_mshrs          nan                       # average number of cycles each access was blocked ((Cycle/Count))
system.cpu0.itb_walker_cache.avgBlocked::no_targets          nan                       # average number of cycles each access was blocked ((Cycle/Count))
system.cpu0.itb_walker_cache.replacements            0                       # number of replacements (Count)
system.cpu0.itb_walker_cache.power_state.pwrStateResidencyTicks::UNDEFINED   1467879500                       # Cumulative time (in ticks) in various power states (Tick)
system.cpu0.itb_walker_cache.tags.tagsInUse           14                       # Average ticks per tags in use ((Tick/Count))
system.cpu0.itb_walker_cache.tags.totalRefs            0                       # Total number of references to valid blocks. (Count)
system.cpu0.itb_walker_cache.tags.sampledRefs            0                       # Sample count of references to valid blocks. (Count)
system.cpu0.itb_walker_cache.tags.avgRefs          nan                       # Average number of references to valid blocks. ((Count/Count))
system.cpu0.itb_walker_cache.tags.warmupTick            0                       # The tick when the warmup percentage was hit. (Tick)
system.cpu0.itb_walker_cache.tags.occupancies::cpu0.mmu.itb.walker           14                       # Average occupied blocks per tick, per requestor ((Count/Tick))
system.cpu0.itb_walker_cache.tags.avgOccs::cpu0.mmu.itb.walker     0.875000                       # Average percentage of cache occupancy ((Ratio/Tick))
system.cpu0.itb_walker_cache.tags.avgOccs::total     0.875000                       # Average percentage of cache occupancy ((Ratio/Tick))
system.cpu0.itb_walker_cache.tags.occupanciesTaskId::1024           14                       # Occupied blocks per task id (Count)
system.cpu0.itb_walker_cache.tags.ageTaskId_1024::3           14                       # Occupied blocks per task id, per block age (Count)
system.cpu0.itb_walker_cache.tags.ratioOccsTaskId::1024     0.875000                       # Ratio of occupied blocks and all blocks, per task id (Ratio)
system.cpu0.itb_walker_cache.tags.tagAccesses            0                       # Number of tag accesses (Count)
system.cpu0.itb_walker_cache.tags.dataAccesses            0                       # Number of data accesses (Count)
system.cpu0.itb_walker_cache.tags.power_state.pwrStateResidencyTicks::UNDEFINED   1467879500                       # Cumulative time (in ticks) in various power states (Tick)
system.cpu0.mmu.dtb.rdAccesses                   6066                       # TLB accesses on read requests (Count)
system.cpu0.mmu.dtb.wrAccesses                   3383                       # TLB accesses on write requests (Count)
system.cpu0.mmu.dtb.rdMisses                        0                       # TLB misses on read requests (Count)
system.cpu0.mmu.dtb.wrMisses                        0                       # TLB misses on write requests (Count)
system.cpu0.mmu.dtb.walker.power_state.pwrStateResidencyTicks::UNDEFINED   1467879500                       # Cumulative time (in ticks) in various power states (Tick)
system.cpu0.mmu.itb.rdAccesses                      0                       # TLB accesses on read requests (Count)
system.cpu0.mmu.itb.wrAccesses                  23959                       # TLB accesses on write requests (Count)
system.cpu0.mmu.itb.rdMisses                        0                       # TLB misses on read requests (Count)
system.cpu0.mmu.itb.wrMisses                        0                       # TLB misses on write requests (Count)
system.cpu0.mmu.itb.walker.power_state.pwrStateResidencyTicks::UNDEFINED   1467879500                       # Cumulative time (in ticks) in various power states (Tick)
system.cpu0.power_state.numTransitions             30                       # Number of power state transitions (Count)
system.cpu0.power_state.ticksClkGated::samples           16                       # Distribution of time spent in the clock gated state (Tick)
system.cpu0.power_state.ticksClkGated::mean 90335983.812500                       # Distribution of time spent in the clock gated state (Tick)
system.cpu0.power_state.ticksClkGated::stdev 198533904.813784                       # Distribution of time spent in the clock gated state (Tick)
system.cpu0.power_state.ticksClkGated::1000-5e+10           16    100.00%    100.00% # Distribution of time spent in the clock gated state (Tick)
system.cpu0.power_state.ticksClkGated::min_value      2885000                       # Distribution of time spent in the clock gated state (Tick)
system.cpu0.power_state.ticksClkGated::max_value    642568241                       # Distribution of time spent in the clock gated state (Tick)
system.cpu0.power_state.ticksClkGated::total           16                       # Distribution of time spent in the clock gated state (Tick)
system.cpu0.power_state.pwrStateResidencyTicks::ON     22503759                       # Cumulative time (in ticks) in various power states (Tick)
system.cpu0.power_state.pwrStateResidencyTicks::CLK_GATED   1445375741                       # Cumulative time (in ticks) in various power states (Tick)
system.cpu0.thread_0.numInsts                       0                       # Number of Instructions committed (Count)
system.cpu0.thread_0.numOps                         0                       # Number of Ops committed (Count)
system.cpu0.thread_0.numMemRefs                     0                       # Number of Memory References (Count)
system.cpu1.numCycles                         2683913                       # Number of cpu cycles simulated (Cycle)
system.cpu1.numWorkItemsStarted                     0                       # Number of work items this cpu started (Count)
system.cpu1.numWorkItemsCompleted                   0                       # Number of work items this cpu completed (Count)
system.cpu1.dcache.demandHits::cpu1.data        36741                       # number of demand (read+write) hits (Count)
system.cpu1.dcache.demandHits::total            36741                       # number of demand (read+write) hits (Count)
system.cpu1.dcache.overallHits::cpu1.data        38253                       # number of overall hits (Count)
system.cpu1.dcache.overallHits::total           38253                       # number of overall hits (Count)
system.cpu1.dcache.demandMisses::cpu1.data          749                       # number of demand (read+write) misses (Count)
system.cpu1.dcache.demandMisses::total            749                       # number of demand (read+write) misses (Count)
system.cpu1.dcache.overallMisses::cpu1.data          778                       # number of overall misses (Count)
system.cpu1.dcache.overallMisses::total           778                       # number of overall misses (Count)
system.cpu1.dcache.demandAccesses::cpu1.data        37490                       # number of demand (read+write) accesses (Count)
system.cpu1.dcache.demandAccesses::total        37490                       # number of demand (read+write) accesses (Count)
system.cpu1.dcache.overallAccesses::cpu1.data        39031                       # number of overall (read+write) accesses (Count)
system.cpu1.dcache.overallAccesses::total        39031                       # number of overall (read+write) accesses (Count)
system.cpu1.dcache.demandMissRate::cpu1.data     0.019979                       # miss rate for demand accesses (Ratio)
system.cpu1.dcache.demandMissRate::total     0.019979                       # miss rate for demand accesses (Ratio)
system.cpu1.dcache.overallMissRate::cpu1.data     0.019933                       # miss rate for overall accesses (Ratio)
system.cpu1.dcache.overallMissRate::total     0.019933                       # miss rate for overall accesses (Ratio)
system.cpu1.dcache.blockedCycles::no_mshrs            0                       # number of cycles access was blocked (Cycle)
system.cpu1.dcache.blockedCycles::no_targets            0                       # number of cycles access was blocked (Cycle)
system.cpu1.dcache.blockedCauses::no_mshrs            0                       # number of times access was blocked (Count)
system.cpu1.dcache.blockedCauses::no_targets            0                       # number of times access was blocked (Count)
system.cpu1.dcache.avgBlocked::no_mshrs           nan                       # average number of cycles each access was blocked ((Cycle/Count))
system.cpu1.dcache.avgBlocked::no_targets          nan                       # average number of cycles each access was blocked ((Cycle/Count))
system.cpu1.dcache.writebacks::writebacks           35                       # number of writebacks (Count)
system.cpu1.dcache.writebacks::total               35                       # number of writebacks (Count)
system.cpu1.dcache.replacements                    38                       # number of replacements (Count)
system.cpu1.dcache.LockedRMWReadReq.hits::cpu1.data          483                       # number of LockedRMWReadReq hits (Count)
system.cpu1.dcache.LockedRMWReadReq.hits::total          483                       # number of LockedRMWReadReq hits (Count)
system.cpu1.dcache.LockedRMWReadReq.misses::cpu1.data          150                       # number of LockedRMWReadReq misses (Count)
system.cpu1.dcache.LockedRMWReadReq.misses::total          150                       # number of LockedRMWReadReq misses (Count)
system.cpu1.dcache.LockedRMWReadReq.accesses::cpu1.data          633                       # number of LockedRMWReadReq accesses(hits+misses) (Count)
system.cpu1.dcache.LockedRMWReadReq.accesses::total          633                       # number of LockedRMWReadReq accesses(hits+misses) (Count)
system.cpu1.dcache.LockedRMWReadReq.missRate::cpu1.data     0.236967                       # miss rate for LockedRMWReadReq accesses (Ratio)
system.cpu1.dcache.LockedRMWReadReq.missRate::total     0.236967                       # miss rate for LockedRMWReadReq accesses (Ratio)
system.cpu1.dcache.LockedRMWWriteReq.hits::cpu1.data          633                       # number of LockedRMWWriteReq hits (Count)
system.cpu1.dcache.LockedRMWWriteReq.hits::total          633                       # number of LockedRMWWriteReq hits (Count)
system.cpu1.dcache.LockedRMWWriteReq.accesses::cpu1.data          633                       # number of LockedRMWWriteReq accesses(hits+misses) (Count)
system.cpu1.dcache.LockedRMWWriteReq.accesses::total          633                       # number of LockedRMWWriteReq accesses(hits+misses) (Count)
system.cpu1.dcache.ReadReq.hits::cpu1.data        23577                       # number of ReadReq hits (Count)
system.cpu1.dcache.ReadReq.hits::total          23577                       # number of ReadReq hits (Count)
system.cpu1.dcache.ReadReq.misses::cpu1.data          364                       # number of ReadReq misses (Count)
system.cpu1.dcache.ReadReq.misses::total          364                       # number of ReadReq misses (Count)
system.cpu1.dcache.ReadReq.accesses::cpu1.data        23941                       # number of ReadReq accesses(hits+misses) (Count)
system.cpu1.dcache.ReadReq.accesses::total        23941                       # number of ReadReq accesses(hits+misses) (Count)
system.cpu1.dcache.ReadReq.missRate::cpu1.data     0.015204                       # miss rate for ReadReq accesses (Ratio)
system.cpu1.dcache.ReadReq.missRate::total     0.015204                       # miss rate for ReadReq accesses (Ratio)
system.cpu1.dcache.SoftPFReq.hits::cpu1.data         1512                       # number of SoftPFReq hits (Count)
system.cpu1.dcache.SoftPFReq.hits::total         1512                       # number of SoftPFReq hits (Count)
system.cpu1.dcache.SoftPFReq.misses::cpu1.data           29                       # number of SoftPFReq misses (Count)
system.cpu1.dcache.SoftPFReq.misses::total           29                       # number of SoftPFReq misses (Count)
system.cpu1.dcache.SoftPFReq.accesses::cpu1.data         1541                       # number of SoftPFReq accesses(hits+misses) (Count)
system.cpu1.dcache.SoftPFReq.accesses::total         1541                       # number of SoftPFReq accesses(hits+misses) (Count)
system.cpu1.dcache.SoftPFReq.missRate::cpu1.data     0.018819                       # miss rate for SoftPFReq accesses (Ratio)
system.cpu1.dcache.SoftPFReq.missRate::total     0.018819                       # miss rate for SoftPFReq accesses (Ratio)
system.cpu1.dcache.WriteReq.hits::cpu1.data        13164                       # number of WriteReq hits (Count)
system.cpu1.dcache.WriteReq.hits::total         13164                       # number of WriteReq hits (Count)
system.cpu1.dcache.WriteReq.misses::cpu1.data          385                       # number of WriteReq misses (Count)
system.cpu1.dcache.WriteReq.misses::total          385                       # number of WriteReq misses (Count)
system.cpu1.dcache.WriteReq.accesses::cpu1.data        13549                       # number of WriteReq accesses(hits+misses) (Count)
system.cpu1.dcache.WriteReq.accesses::total        13549                       # number of WriteReq accesses(hits+misses) (Count)
system.cpu1.dcache.WriteReq.missRate::cpu1.data     0.028415                       # miss rate for WriteReq accesses (Ratio)
system.cpu1.dcache.WriteReq.missRate::total     0.028415                       # miss rate for WriteReq accesses (Ratio)
system.cpu1.dcache.power_state.pwrStateResidencyTicks::UNDEFINED   1467879500                       # Cumulative time (in ticks) in various power states (Tick)
system.cpu1.dcache.tags.tagsInUse        11825.982068                       # Average ticks per tags in use ((Tick/Count))
system.cpu1.dcache.tags.totalRefs               32824                       # Total number of references to valid blocks. (Count)
system.cpu1.dcache.tags.sampledRefs              1342                       # Sample count of references to valid blocks. (Count)
system.cpu1.dcache.tags.avgRefs             24.459016                       # Average number of references to valid blocks. ((Count/Count))
system.cpu1.dcache.tags.warmupTick                  0                       # The tick when the warmup percentage was hit. (Tick)
system.cpu1.dcache.tags.occupancies::cpu1.data 11825.982068                       # Average occupied blocks per tick, per requestor ((Count/Tick))
system.cpu1.dcache.tags.avgOccs::cpu1.data     0.721801                       # Average percentage of cache occupancy ((Ratio/Tick))
system.cpu1.dcache.tags.avgOccs::total       0.721801                       # Average percentage of cache occupancy ((Ratio/Tick))
system.cpu1.dcache.tags.occupanciesTaskId::1024        11458                       # Occupied blocks per task id (Count)
system.cpu1.dcache.tags.ageTaskId_1024::0            1                       # Occupied blocks per task id, per block age (Count)
system.cpu1.dcache.tags.ageTaskId_1024::1            5                       # Occupied blocks per task id, per block age (Count)
system.cpu1.dcache.tags.ageTaskId_1024::2          166                       # Occupied blocks per task id, per block age (Count)
system.cpu1.dcache.tags.ageTaskId_1024::3         3815                       # Occupied blocks per task id, per block age (Count)
system.cpu1.dcache.tags.ageTaskId_1024::4         7471                       # Occupied blocks per task id, per block age (Count)
system.cpu1.dcache.tags.ratioOccsTaskId::1024     0.699341                       # Ratio of occupied blocks and all blocks, per task id (Ratio)
system.cpu1.dcache.tags.tagAccesses            323007                       # Number of tag accesses (Count)
system.cpu1.dcache.tags.dataAccesses           323007                       # Number of data accesses (Count)
system.cpu1.dcache.tags.power_state.pwrStateResidencyTicks::UNDEFINED   1467879500                       # Cumulative time (in ticks) in various power states (Tick)
system.cpu1.dtb_walker_cache.demandHits::cpu1.mmu.dtb.walker            5                       # number of demand (read+write) hits (Count)
system.cpu1.dtb_walker_cache.demandHits::total            5                       # number of demand (read+write) hits (Count)
system.cpu1.dtb_walker_cache.overallHits::cpu1.mmu.dtb.walker            5                       # number of overall hits (Count)
system.cpu1.dtb_walker_cache.overallHits::total            5                       # number of overall hits (Count)
system.cpu1.dtb_walker_cache.demandMisses::cpu1.mmu.dtb.walker           23                       # number of demand (read+write) misses (Count)
system.cpu1.dtb_walker_cache.demandMisses::total           23                       # number of demand (read+write) misses (Count)
system.cpu1.dtb_walker_cache.overallMisses::cpu1.mmu.dtb.walker           23                       # number of overall misses (Count)
system.cpu1.dtb_walker_cache.overallMisses::total           23                       # number of overall misses (Count)
system.cpu1.dtb_walker_cache.demandAccesses::cpu1.mmu.dtb.walker           28                       # number of demand (read+write) accesses (Count)
system.cpu1.dtb_walker_cache.demandAccesses::total           28                       # number of demand (read+write) accesses (Count)
system.cpu1.dtb_walker_cache.overallAccesses::cpu1.mmu.dtb.walker           28                       # number of overall (read+write) accesses (Count)
system.cpu1.dtb_walker_cache.overallAccesses::total           28                       # number of overall (read+write) accesses (Count)
system.cpu1.dtb_walker_cache.demandMissRate::cpu1.mmu.dtb.walker     0.821429                       # miss rate for demand accesses (Ratio)
system.cpu1.dtb_walker_cache.demandMissRate::total     0.821429                       # miss rate for demand accesses (Ratio)
system.cpu1.dtb_walker_cache.overallMissRate::cpu1.mmu.dtb.walker     0.821429                       # miss rate for overall accesses (Ratio)
system.cpu1.dtb_walker_cache.overallMissRate::total     0.821429                       # miss rate for overall accesses (Ratio)
system.cpu1.dtb_walker_cache.blockedCycles::no_mshrs            0                       # number of cycles access was blocked (Cycle)
system.cpu1.dtb_walker_cache.blockedCycles::no_targets            0                       # number of cycles access was blocked (Cycle)
system.cpu1.dtb_walker_cache.blockedCauses::no_mshrs            0                       # number of times access was blocked (Count)
system.cpu1.dtb_walker_cache.blockedCauses::no_targets            0                       # number of times access was blocked (Count)
system.cpu1.dtb_walker_cache.avgBlocked::no_mshrs          nan                       # average number of cycles each access was blocked ((Cycle/Count))
system.cpu1.dtb_walker_cache.avgBlocked::no_targets          nan                       # average number of cycles each access was blocked ((Cycle/Count))
system.cpu1.dtb_walker_cache.replacements           16                       # number of replacements (Count)
system.cpu1.dtb_walker_cache.ReadReq.hits::cpu1.mmu.dtb.walker            5                       # number of ReadReq hits (Count)
system.cpu1.dtb_walker_cache.ReadReq.hits::total            5                       # number of ReadReq hits (Count)
system.cpu1.dtb_walker_cache.ReadReq.misses::cpu1.mmu.dtb.walker           23                       # number of ReadReq misses (Count)
system.cpu1.dtb_walker_cache.ReadReq.misses::total           23                       # number of ReadReq misses (Count)
system.cpu1.dtb_walker_cache.ReadReq.accesses::cpu1.mmu.dtb.walker           28                       # number of ReadReq accesses(hits+misses) (Count)
system.cpu1.dtb_walker_cache.ReadReq.accesses::total           28                       # number of ReadReq accesses(hits+misses) (Count)
system.cpu1.dtb_walker_cache.ReadReq.missRate::cpu1.mmu.dtb.walker     0.821429                       # miss rate for ReadReq accesses (Ratio)
system.cpu1.dtb_walker_cache.ReadReq.missRate::total     0.821429                       # miss rate for ReadReq accesses (Ratio)
system.cpu1.dtb_walker_cache.power_state.pwrStateResidencyTicks::UNDEFINED   1467879500                       # Cumulative time (in ticks) in various power states (Tick)
system.cpu1.dtb_walker_cache.tags.tagsInUse     2.985515                       # Average ticks per tags in use ((Tick/Count))
system.cpu1.dtb_walker_cache.tags.totalRefs           20                       # Total number of references to valid blocks. (Count)
system.cpu1.dtb_walker_cache.tags.sampledRefs           20                       # Sample count of references to valid blocks. (Count)
system.cpu1.dtb_walker_cache.tags.avgRefs            1                       # Average number of references to valid blocks. ((Count/Count))
system.cpu1.dtb_walker_cache.tags.warmupTick            0                       # The tick when the warmup percentage was hit. (Tick)
system.cpu1.dtb_walker_cache.tags.occupancies::cpu1.mmu.dtb.walker     2.985515                       # Average occupied blocks per tick, per requestor ((Count/Tick))
system.cpu1.dtb_walker_cache.tags.avgOccs::cpu1.mmu.dtb.walker     0.186595                       # Average percentage of cache occupancy ((Ratio/Tick))
system.cpu1.dtb_walker_cache.tags.avgOccs::total     0.186595                       # Average percentage of cache occupancy ((Ratio/Tick))
system.cpu1.dtb_walker_cache.tags.occupanciesTaskId::1024            4                       # Occupied blocks per task id (Count)
system.cpu1.dtb_walker_cache.tags.ageTaskId_1024::2            3                       # Occupied blocks per task id, per block age (Count)
system.cpu1.dtb_walker_cache.tags.ageTaskId_1024::3            1                       # Occupied blocks per task id, per block age (Count)
system.cpu1.dtb_walker_cache.tags.ratioOccsTaskId::1024     0.250000                       # Ratio of occupied blocks and all blocks, per task id (Ratio)
system.cpu1.dtb_walker_cache.tags.tagAccesses           79                       # Number of tag accesses (Count)
system.cpu1.dtb_walker_cache.tags.dataAccesses           79                       # Number of data accesses (Count)
system.cpu1.dtb_walker_cache.tags.power_state.pwrStateResidencyTicks::UNDEFINED   1467879500                       # Cumulative time (in ticks) in various power states (Tick)
system.cpu1.exec_context.thread_0.numInsts        91949                       # Number of instructions committed (Count)
system.cpu1.exec_context.thread_0.numOps       170985                       # Number of ops (including micro ops) committed (Count)
system.cpu1.exec_context.thread_0.numIntAluAccesses       168181                       # Number of integer alu accesses (Count)
system.cpu1.exec_context.thread_0.numFpAluAccesses            0                       # Number of float alu accesses (Count)
system.cpu1.exec_context.thread_0.numVecAluAccesses            0                       # Number of vector alu accesses (Count)
system.cpu1.exec_context.thread_0.numCallsReturns         3948                       # Number of times a function call or return occured (Count)
system.cpu1.exec_context.thread_0.numCondCtrlInsts        12915                       # Number of instructions that are conditional controls (Count)
system.cpu1.exec_context.thread_0.numIntInsts       168181                       # Number of integer instructions (Count)
system.cpu1.exec_context.thread_0.numFpInsts            0                       # Number of float instructions (Count)
system.cpu1.exec_context.thread_0.numVecInsts            0                       # Number of vector instructions (Count)
system.cpu1.exec_context.thread_0.numIntRegReads       223770                       # Number of times the integer registers were read (Count)
system.cpu1.exec_context.thread_0.numIntRegWrites       121233                       # Number of times the integer registers were written (Count)
system.cpu1.exec_context.thread_0.numFpRegReads            0                       # Number of times the floating registers were read (Count)
system.cpu1.exec_context.thread_0.numFpRegWrites            0                       # Number of times the floating registers were written (Count)
system.cpu1.exec_context.thread_0.numVecRegReads            0                       # Number of times the vector registers were read (Count)
system.cpu1.exec_context.thread_0.numVecRegWrites            0                       # Number of times the vector registers were written (Count)
system.cpu1.exec_context.thread_0.numVecPredRegReads            0                       # Number of times the predicate registers were read (Count)
system.cpu1.exec_context.thread_0.numVecPredRegWrites            0                       # Number of times the predicate registers were written (Count)
system.cpu1.exec_context.thread_0.numCCRegReads        86307                       # Number of times the CC registers were read (Count)
system.cpu1.exec_context.thread_0.numCCRegWrites        57783                       # Number of times the CC registers were written (Count)
system.cpu1.exec_context.thread_0.numMiscRegReads        75255                       # Number of times the Misc registers were read (Count)
system.cpu1.exec_context.thread_0.numMiscRegWrites          967                       # Number of times the Misc registers were written (Count)
system.cpu1.exec_context.thread_0.numMemRefs        40370                       # Number of memory refs (Count)
system.cpu1.exec_context.thread_0.numLoadInsts        26157                       # Number of load instructions (Count)
system.cpu1.exec_context.thread_0.numStoreInsts        14213                       # Number of store instructions (Count)
system.cpu1.exec_context.thread_0.numIdleCycles 2472235.993343                       # Number of idle cycles (Cycle)
system.cpu1.exec_context.thread_0.numBusyCycles 211677.006657                       # Number of busy cycles (Cycle)
system.cpu1.exec_context.thread_0.notIdleFraction     0.078869                       # Percentage of non-idle cycles (Ratio)
system.cpu1.exec_context.thread_0.idleFraction     0.921131                       # Percentage of idle cycles (Ratio)
system.cpu1.exec_context.thread_0.numBranches        18310                       # Number of branches fetched (Count)
system.cpu1.exec_context.thread_0.statExecutedInstType::No_OpClass          225      0.13%      0.13% # Class of executed instruction. (Count)
system.cpu1.exec_context.thread_0.statExecutedInstType::IntAlu       129765     75.89%     76.02% # Class of executed instruction. (Count)
system.cpu1.exec_context.thread_0.statExecutedInstType::IntMult          567      0.33%     76.35% # Class of executed instruction. (Count)
system.cpu1.exec_context.thread_0.statExecutedInstType::IntDiv           76      0.04%     76.40% # Class of executed instruction. (Count)
system.cpu1.exec_context.thread_0.statExecutedInstType::FloatAdd            0      0.00%     76.40% # Class of executed instruction. (Count)
system.cpu1.exec_context.thread_0.statExecutedInstType::FloatCmp            0      0.00%     76.40% # Class of executed instruction. (Count)
system.cpu1.exec_context.thread_0.statExecutedInstType::FloatCvt            0      0.00%     76.40% # Class of executed instruction. (Count)
system.cpu1.exec_context.thread_0.statExecutedInstType::FloatMult            0      0.00%     76.40% # Class of executed instruction. (Count)
system.cpu1.exec_context.thread_0.statExecutedInstType::FloatMultAcc            0      0.00%     76.40% # Class of executed instruction. (Count)
system.cpu1.exec_context.thread_0.statExecutedInstType::FloatDiv            0      0.00%     76.40% # Class of executed instruction. (Count)
system.cpu1.exec_context.thread_0.statExecutedInstType::FloatMisc            0      0.00%     76.40% # Class of executed instruction. (Count)
system.cpu1.exec_context.thread_0.statExecutedInstType::FloatSqrt            0      0.00%     76.40% # Class of executed instruction. (Count)
system.cpu1.exec_context.thread_0.statExecutedInstType::SimdAdd            0      0.00%     76.40% # Class of executed instruction. (Count)
system.cpu1.exec_context.thread_0.statExecutedInstType::SimdAddAcc            0      0.00%     76.40% # Class of executed instruction. (Count)
system.cpu1.exec_context.thread_0.statExecutedInstType::SimdAlu            0      0.00%     76.40% # Class of executed instruction. (Count)
system.cpu1.exec_context.thread_0.statExecutedInstType::SimdCmp            0      0.00%     76.40% # Class of executed instruction. (Count)
system.cpu1.exec_context.thread_0.statExecutedInstType::SimdCvt            0      0.00%     76.40% # Class of executed instruction. (Count)
system.cpu1.exec_context.thread_0.statExecutedInstType::SimdMisc            0      0.00%     76.40% # Class of executed instruction. (Count)
system.cpu1.exec_context.thread_0.statExecutedInstType::SimdMult            0      0.00%     76.40% # Class of executed instruction. (Count)
system.cpu1.exec_context.thread_0.statExecutedInstType::SimdMultAcc            0      0.00%     76.40% # Class of executed instruction. (Count)
system.cpu1.exec_context.thread_0.statExecutedInstType::SimdShift            0      0.00%     76.40% # Class of executed instruction. (Count)
system.cpu1.exec_context.thread_0.statExecutedInstType::SimdShiftAcc            0      0.00%     76.40% # Class of executed instruction. (Count)
system.cpu1.exec_context.thread_0.statExecutedInstType::SimdDiv            0      0.00%     76.40% # Class of executed instruction. (Count)
system.cpu1.exec_context.thread_0.statExecutedInstType::SimdSqrt            0      0.00%     76.40% # Class of executed instruction. (Count)
system.cpu1.exec_context.thread_0.statExecutedInstType::SimdFloatAdd            0      0.00%     76.40% # Class of executed instruction. (Count)
system.cpu1.exec_context.thread_0.statExecutedInstType::SimdFloatAlu            0      0.00%     76.40% # Class of executed instruction. (Count)
system.cpu1.exec_context.thread_0.statExecutedInstType::SimdFloatCmp            0      0.00%     76.40% # Class of executed instruction. (Count)
system.cpu1.exec_context.thread_0.statExecutedInstType::SimdFloatCvt            0      0.00%     76.40% # Class of executed instruction. (Count)
system.cpu1.exec_context.thread_0.statExecutedInstType::SimdFloatDiv            0      0.00%     76.40% # Class of executed instruction. (Count)
system.cpu1.exec_context.thread_0.statExecutedInstType::SimdFloatMisc            0      0.00%     76.40% # Class of executed instruction. (Count)
system.cpu1.exec_context.thread_0.statExecutedInstType::SimdFloatMult            0      0.00%     76.40% # Class of executed instruction. (Count)
system.cpu1.exec_context.thread_0.statExecutedInstType::SimdFloatMultAcc            0      0.00%     76.40% # Class of executed instruction. (Count)
system.cpu1.exec_context.thread_0.statExecutedInstType::SimdFloatSqrt            0      0.00%     76.40% # Class of executed instruction. (Count)
system.cpu1.exec_context.thread_0.statExecutedInstType::SimdReduceAdd            0      0.00%     76.40% # Class of executed instruction. (Count)
system.cpu1.exec_context.thread_0.statExecutedInstType::SimdReduceAlu            0      0.00%     76.40% # Class of executed instruction. (Count)
system.cpu1.exec_context.thread_0.statExecutedInstType::SimdReduceCmp            0      0.00%     76.40% # Class of executed instruction. (Count)
system.cpu1.exec_context.thread_0.statExecutedInstType::SimdFloatReduceAdd            0      0.00%     76.40% # Class of executed instruction. (Count)
system.cpu1.exec_context.thread_0.statExecutedInstType::SimdFloatReduceCmp            0      0.00%     76.40% # Class of executed instruction. (Count)
system.cpu1.exec_context.thread_0.statExecutedInstType::SimdAes            0      0.00%     76.40% # Class of executed instruction. (Count)
system.cpu1.exec_context.thread_0.statExecutedInstType::SimdAesMix            0      0.00%     76.40% # Class of executed instruction. (Count)
system.cpu1.exec_context.thread_0.statExecutedInstType::SimdSha1Hash            0      0.00%     76.40% # Class of executed instruction. (Count)
system.cpu1.exec_context.thread_0.statExecutedInstType::SimdSha1Hash2            0      0.00%     76.40% # Class of executed instruction. (Count)
system.cpu1.exec_context.thread_0.statExecutedInstType::SimdSha256Hash            0      0.00%     76.40% # Class of executed instruction. (Count)
system.cpu1.exec_context.thread_0.statExecutedInstType::SimdSha256Hash2            0      0.00%     76.40% # Class of executed instruction. (Count)
system.cpu1.exec_context.thread_0.statExecutedInstType::SimdShaSigma2            0      0.00%     76.40% # Class of executed instruction. (Count)
system.cpu1.exec_context.thread_0.statExecutedInstType::SimdShaSigma3            0      0.00%     76.40% # Class of executed instruction. (Count)
system.cpu1.exec_context.thread_0.statExecutedInstType::SimdPredAlu            0      0.00%     76.40% # Class of executed instruction. (Count)
system.cpu1.exec_context.thread_0.statExecutedInstType::MemRead        26142     15.29%     91.69% # Class of executed instruction. (Count)
system.cpu1.exec_context.thread_0.statExecutedInstType::MemWrite        14213      8.31%    100.00% # Class of executed instruction. (Count)
system.cpu1.exec_context.thread_0.statExecutedInstType::FloatMemRead            0      0.00%    100.00% # Class of executed instruction. (Count)
system.cpu1.exec_context.thread_0.statExecutedInstType::FloatMemWrite            0      0.00%    100.00% # Class of executed instruction. (Count)
system.cpu1.exec_context.thread_0.statExecutedInstType::IprAccess            0      0.00%    100.00% # Class of executed instruction. (Count)
system.cpu1.exec_context.thread_0.statExecutedInstType::InstPrefetch            0      0.00%    100.00% # Class of executed instruction. (Count)
system.cpu1.exec_context.thread_0.statExecutedInstType::total       170988                       # Class of executed instruction. (Count)
system.cpu1.icache.demandHits::cpu1.inst       121140                       # number of demand (read+write) hits (Count)
system.cpu1.icache.demandHits::total           121140                       # number of demand (read+write) hits (Count)
system.cpu1.icache.overallHits::cpu1.inst       121140                       # number of overall hits (Count)
system.cpu1.icache.overallHits::total          121140                       # number of overall hits (Count)
system.cpu1.icache.demandMisses::cpu1.inst         1091                       # number of demand (read+write) misses (Count)
system.cpu1.icache.demandMisses::total           1091                       # number of demand (read+write) misses (Count)
system.cpu1.icache.overallMisses::cpu1.inst         1091                       # number of overall misses (Count)
system.cpu1.icache.overallMisses::total          1091                       # number of overall misses (Count)
system.cpu1.icache.demandAccesses::cpu1.inst       122231                       # number of demand (read+write) accesses (Count)
system.cpu1.icache.demandAccesses::total       122231                       # number of demand (read+write) accesses (Count)
system.cpu1.icache.overallAccesses::cpu1.inst       122231                       # number of overall (read+write) accesses (Count)
system.cpu1.icache.overallAccesses::total       122231                       # number of overall (read+write) accesses (Count)
system.cpu1.icache.demandMissRate::cpu1.inst     0.008926                       # miss rate for demand accesses (Ratio)
system.cpu1.icache.demandMissRate::total     0.008926                       # miss rate for demand accesses (Ratio)
system.cpu1.icache.overallMissRate::cpu1.inst     0.008926                       # miss rate for overall accesses (Ratio)
system.cpu1.icache.overallMissRate::total     0.008926                       # miss rate for overall accesses (Ratio)
system.cpu1.icache.blockedCycles::no_mshrs            0                       # number of cycles access was blocked (Cycle)
system.cpu1.icache.blockedCycles::no_targets            0                       # number of cycles access was blocked (Cycle)
system.cpu1.icache.blockedCauses::no_mshrs            0                       # number of times access was blocked (Count)
system.cpu1.icache.blockedCauses::no_targets            0                       # number of times access was blocked (Count)
system.cpu1.icache.avgBlocked::no_mshrs           nan                       # average number of cycles each access was blocked ((Cycle/Count))
system.cpu1.icache.avgBlocked::no_targets          nan                       # average number of cycles each access was blocked ((Cycle/Count))
system.cpu1.icache.writebacks::writebacks         1090                       # number of writebacks (Count)
system.cpu1.icache.writebacks::total             1090                       # number of writebacks (Count)
system.cpu1.icache.replacements                  1090                       # number of replacements (Count)
system.cpu1.icache.ReadReq.hits::cpu1.inst       121140                       # number of ReadReq hits (Count)
system.cpu1.icache.ReadReq.hits::total         121140                       # number of ReadReq hits (Count)
system.cpu1.icache.ReadReq.misses::cpu1.inst         1091                       # number of ReadReq misses (Count)
system.cpu1.icache.ReadReq.misses::total         1091                       # number of ReadReq misses (Count)
system.cpu1.icache.ReadReq.accesses::cpu1.inst       122231                       # number of ReadReq accesses(hits+misses) (Count)
system.cpu1.icache.ReadReq.accesses::total       122231                       # number of ReadReq accesses(hits+misses) (Count)
system.cpu1.icache.ReadReq.missRate::cpu1.inst     0.008926                       # miss rate for ReadReq accesses (Ratio)
system.cpu1.icache.ReadReq.missRate::total     0.008926                       # miss rate for ReadReq accesses (Ratio)
system.cpu1.icache.power_state.pwrStateResidencyTicks::UNDEFINED   1467879500                       # Cumulative time (in ticks) in various power states (Tick)
system.cpu1.icache.tags.tagsInUse         1023.559342                       # Average ticks per tags in use ((Tick/Count))
system.cpu1.icache.tags.totalRefs              131240                       # Total number of references to valid blocks. (Count)
system.cpu1.icache.tags.sampledRefs              1090                       # Sample count of references to valid blocks. (Count)
system.cpu1.icache.tags.avgRefs            120.403670                       # Average number of references to valid blocks. ((Count/Count))
system.cpu1.icache.tags.warmupTick                  0                       # The tick when the warmup percentage was hit. (Tick)
system.cpu1.icache.tags.occupancies::cpu1.inst  1023.559342                       # Average occupied blocks per tick, per requestor ((Count/Tick))
system.cpu1.icache.tags.avgOccs::cpu1.inst     0.999570                       # Average percentage of cache occupancy ((Ratio/Tick))
system.cpu1.icache.tags.avgOccs::total       0.999570                       # Average percentage of cache occupancy ((Ratio/Tick))
system.cpu1.icache.tags.occupanciesTaskId::1024         1024                       # Occupied blocks per task id (Count)
system.cpu1.icache.tags.ageTaskId_1024::0            1                       # Occupied blocks per task id, per block age (Count)
system.cpu1.icache.tags.ageTaskId_1024::1           29                       # Occupied blocks per task id, per block age (Count)
system.cpu1.icache.tags.ageTaskId_1024::2          483                       # Occupied blocks per task id, per block age (Count)
system.cpu1.icache.tags.ageTaskId_1024::3          502                       # Occupied blocks per task id, per block age (Count)
system.cpu1.icache.tags.ageTaskId_1024::4            9                       # Occupied blocks per task id, per block age (Count)
system.cpu1.icache.tags.ratioOccsTaskId::1024            1                       # Ratio of occupied blocks and all blocks, per task id (Ratio)
system.cpu1.icache.tags.tagAccesses            245553                       # Number of tag accesses (Count)
system.cpu1.icache.tags.dataAccesses           245553                       # Number of data accesses (Count)
system.cpu1.icache.tags.power_state.pwrStateResidencyTicks::UNDEFINED   1467879500                       # Cumulative time (in ticks) in various power states (Tick)
system.cpu1.interrupts.clk_domain.clock          8000                       # Clock period in ticks (Tick)
system.cpu1.itb_walker_cache.demandMisses::cpu1.mmu.itb.walker            4                       # number of demand (read+write) misses (Count)
system.cpu1.itb_walker_cache.demandMisses::total            4                       # number of demand (read+write) misses (Count)
system.cpu1.itb_walker_cache.overallMisses::cpu1.mmu.itb.walker            4                       # number of overall misses (Count)
system.cpu1.itb_walker_cache.overallMisses::total            4                       # number of overall misses (Count)
system.cpu1.itb_walker_cache.demandAccesses::cpu1.mmu.itb.walker            4                       # number of demand (read+write) accesses (Count)
system.cpu1.itb_walker_cache.demandAccesses::total            4                       # number of demand (read+write) accesses (Count)
system.cpu1.itb_walker_cache.overallAccesses::cpu1.mmu.itb.walker            4                       # number of overall (read+write) accesses (Count)
system.cpu1.itb_walker_cache.overallAccesses::total            4                       # number of overall (read+write) accesses (Count)
system.cpu1.itb_walker_cache.demandMissRate::cpu1.mmu.itb.walker            1                       # miss rate for demand accesses (Ratio)
system.cpu1.itb_walker_cache.demandMissRate::total            1                       # miss rate for demand accesses (Ratio)
system.cpu1.itb_walker_cache.overallMissRate::cpu1.mmu.itb.walker            1                       # miss rate for overall accesses (Ratio)
system.cpu1.itb_walker_cache.overallMissRate::total            1                       # miss rate for overall accesses (Ratio)
system.cpu1.itb_walker_cache.blockedCycles::no_mshrs            0                       # number of cycles access was blocked (Cycle)
system.cpu1.itb_walker_cache.blockedCycles::no_targets            0                       # number of cycles access was blocked (Cycle)
system.cpu1.itb_walker_cache.blockedCauses::no_mshrs            0                       # number of times access was blocked (Count)
system.cpu1.itb_walker_cache.blockedCauses::no_targets            0                       # number of times access was blocked (Count)
system.cpu1.itb_walker_cache.avgBlocked::no_mshrs          nan                       # average number of cycles each access was blocked ((Cycle/Count))
system.cpu1.itb_walker_cache.avgBlocked::no_targets          nan                       # average number of cycles each access was blocked ((Cycle/Count))
system.cpu1.itb_walker_cache.replacements            1                       # number of replacements (Count)
system.cpu1.itb_walker_cache.ReadReq.misses::cpu1.mmu.itb.walker            4                       # number of ReadReq misses (Count)
system.cpu1.itb_walker_cache.ReadReq.misses::total            4                       # number of ReadReq misses (Count)
system.cpu1.itb_walker_cache.ReadReq.accesses::cpu1.mmu.itb.walker            4                       # number of ReadReq accesses(hits+misses) (Count)
system.cpu1.itb_walker_cache.ReadReq.accesses::total            4                       # number of ReadReq accesses(hits+misses) (Count)
system.cpu1.itb_walker_cache.ReadReq.missRate::cpu1.mmu.itb.walker            1                       # miss rate for ReadReq accesses (Ratio)
system.cpu1.itb_walker_cache.ReadReq.missRate::total            1                       # miss rate for ReadReq accesses (Ratio)
system.cpu1.itb_walker_cache.power_state.pwrStateResidencyTicks::UNDEFINED   1467879500                       # Cumulative time (in ticks) in various power states (Tick)
system.cpu1.itb_walker_cache.tags.tagsInUse     3.209785                       # Average ticks per tags in use ((Tick/Count))
system.cpu1.itb_walker_cache.tags.totalRefs            2                       # Total number of references to valid blocks. (Count)
system.cpu1.itb_walker_cache.tags.sampledRefs            2                       # Sample count of references to valid blocks. (Count)
system.cpu1.itb_walker_cache.tags.avgRefs            1                       # Average number of references to valid blocks. ((Count/Count))
system.cpu1.itb_walker_cache.tags.warmupTick            0                       # The tick when the warmup percentage was hit. (Tick)
system.cpu1.itb_walker_cache.tags.occupancies::cpu1.mmu.itb.walker     3.209785                       # Average occupied blocks per tick, per requestor ((Count/Tick))
system.cpu1.itb_walker_cache.tags.avgOccs::cpu1.mmu.itb.walker     0.200612                       # Average percentage of cache occupancy ((Ratio/Tick))
system.cpu1.itb_walker_cache.tags.avgOccs::total     0.200612                       # Average percentage of cache occupancy ((Ratio/Tick))
system.cpu1.itb_walker_cache.tags.occupanciesTaskId::1024            4                       # Occupied blocks per task id (Count)
system.cpu1.itb_walker_cache.tags.ageTaskId_1024::2            2                       # Occupied blocks per task id, per block age (Count)
[...]
system.switch_cpus6.exec_context.thread_0.statExecutedInstType::MemWrite            0                       # Class of executed instruction. (Count)
system.switch_cpus6.exec_context.thread_0.statExecutedInstType::FloatMemRead            0                       # Class of executed instruction. (Count)
system.switch_cpus6.exec_context.thread_0.statExecutedInstType::FloatMemWrite            0                       # Class of executed instruction. (Count)
system.switch_cpus6.exec_context.thread_0.statExecutedInstType::IprAccess            0                       # Class of executed instruction. (Count)
system.switch_cpus6.exec_context.thread_0.statExecutedInstType::InstPrefetch            0                       # Class of executed instruction. (Count)
system.switch_cpus6.exec_context.thread_0.statExecutedInstType::total            0                       # Class of executed instruction. (Count)
system.switch_cpus6.mmu.dtb.rdAccesses              0                       # TLB accesses on read requests (Count)
system.switch_cpus6.mmu.dtb.wrAccesses              0                       # TLB accesses on write requests (Count)
system.switch_cpus6.mmu.dtb.rdMisses                0                       # TLB misses on read requests (Count)
system.switch_cpus6.mmu.dtb.wrMisses                0                       # TLB misses on write requests (Count)
system.switch_cpus6.mmu.dtb.walker.power_state.pwrStateResidencyTicks::UNDEFINED   1467879500                       # Cumulative time (in ticks) in various power states (Tick)
system.switch_cpus6.mmu.itb.rdAccesses              0                       # TLB accesses on read requests (Count)
system.switch_cpus6.mmu.itb.wrAccesses              0                       # TLB accesses on write requests (Count)
system.switch_cpus6.mmu.itb.rdMisses                0                       # TLB misses on read requests (Count)
system.switch_cpus6.mmu.itb.wrMisses                0                       # TLB misses on write requests (Count)
system.switch_cpus6.mmu.itb.walker.power_state.pwrStateResidencyTicks::UNDEFINED   1467879500                       # Cumulative time (in ticks) in various power states (Tick)
system.switch_cpus6.power_state.pwrStateResidencyTicks::OFF   1467879500                       # Cumulative time (in ticks) in various power states (Tick)
system.switch_cpus6.thread_0.numInsts               0                       # Number of Instructions committed (Count)
system.switch_cpus6.thread_0.numOps                 0                       # Number of Ops committed (Count)
system.switch_cpus6.thread_0.numMemRefs             0                       # Number of Memory References (Count)
system.tol2bus.transDist::ReadReq                 507                       # Transaction distribution (Count)
system.tol2bus.transDist::ReadResp              20728                       # Transaction distribution (Count)
system.tol2bus.transDist::WriteReq                474                       # Transaction distribution (Count)
system.tol2bus.transDist::WriteResp               474                       # Transaction distribution (Count)
system.tol2bus.transDist::WritebackDirty          514                       # Transaction distribution (Count)
system.tol2bus.transDist::WritebackClean        14117                       # Transaction distribution (Count)
system.tol2bus.transDist::CleanEvict             1243                       # Transaction distribution (Count)
system.tol2bus.transDist::UpgradeReq             2917                       # Transaction distribution (Count)
system.tol2bus.transDist::UpgradeResp            2917                       # Transaction distribution (Count)
system.tol2bus.transDist::ReadExReq              3571                       # Transaction distribution (Count)
system.tol2bus.transDist::ReadExResp             3571                       # Transaction distribution (Count)
system.tol2bus.transDist::ReadCleanReq          14120                       # Transaction distribution (Count)
system.tol2bus.transDist::ReadSharedReq          6101                       # Transaction distribution (Count)
system.tol2bus.pktCount_system.cpu0.icache.mem_side_port::system.l2.cpu_side_port          171                       # Packet count per connected requestor and responder (Count)
system.tol2bus.pktCount_system.cpu0.dcache.mem_side_port::system.l2.cpu_side_port          928                       # Packet count per connected requestor and responder (Count)
system.tol2bus.pktCount_system.cpu1.icache.mem_side_port::system.l2.cpu_side_port         3272                       # Packet count per connected requestor and responder (Count)
system.tol2bus.pktCount_system.cpu1.dcache.mem_side_port::system.l2.cpu_side_port         2150                       # Packet count per connected requestor and responder (Count)
system.tol2bus.pktCount_system.cpu1.itb_walker_cache.mem_side_port::system.l2.cpu_side_port            9                       # Packet count per connected requestor and responder (Count)
system.tol2bus.pktCount_system.cpu1.dtb_walker_cache.mem_side_port::system.l2.cpu_side_port           62                       # Packet count per connected requestor and responder (Count)
system.tol2bus.pktCount_system.cpu2.icache.mem_side_port::system.l2.cpu_side_port         8478                       # Packet count per connected requestor and responder (Count)
system.tol2bus.pktCount_system.cpu2.dcache.mem_side_port::system.l2.cpu_side_port         4838                       # Packet count per connected requestor and responder (Count)
system.tol2bus.pktCount_system.cpu2.itb_walker_cache.mem_side_port::system.l2.cpu_side_port          428                       # Packet count per connected requestor and responder (Count)
system.tol2bus.pktCount_system.cpu2.dtb_walker_cache.mem_side_port::system.l2.cpu_side_port          338                       # Packet count per connected requestor and responder (Count)
system.tol2bus.pktCount_system.cpu3.icache.mem_side_port::system.l2.cpu_side_port        10119                       # Packet count per connected requestor and responder (Count)
system.tol2bus.pktCount_system.cpu3.dcache.mem_side_port::system.l2.cpu_side_port         6445                       # Packet count per connected requestor and responder (Count)
system.tol2bus.pktCount_system.cpu3.itb_walker_cache.mem_side_port::system.l2.cpu_side_port          453                       # Packet count per connected requestor and responder (Count)
system.tol2bus.pktCount_system.cpu3.dtb_walker_cache.mem_side_port::system.l2.cpu_side_port          271                       # Packet count per connected requestor and responder (Count)
system.tol2bus.pktCount_system.cpu4.icache.mem_side_port::system.l2.cpu_side_port         9718                       # Packet count per connected requestor and responder (Count)
system.tol2bus.pktCount_system.cpu4.dcache.mem_side_port::system.l2.cpu_side_port         4405                       # Packet count per connected requestor and responder (Count)
system.tol2bus.pktCount_system.cpu4.itb_walker_cache.mem_side_port::system.l2.cpu_side_port          670                       # Packet count per connected requestor and responder (Count)
system.tol2bus.pktCount_system.cpu4.dtb_walker_cache.mem_side_port::system.l2.cpu_side_port          418                       # Packet count per connected requestor and responder (Count)
system.tol2bus.pktCount_system.cpu5.icache.mem_side_port::system.l2.cpu_side_port         5877                       # Packet count per connected requestor and responder (Count)
system.tol2bus.pktCount_system.cpu5.dcache.mem_side_port::system.l2.cpu_side_port         3985                       # Packet count per connected requestor and responder (Count)
system.tol2bus.pktCount_system.cpu5.itb_walker_cache.mem_side_port::system.l2.cpu_side_port          129                       # Packet count per connected requestor and responder (Count)
system.tol2bus.pktCount_system.cpu5.dtb_walker_cache.mem_side_port::system.l2.cpu_side_port          144                       # Packet count per connected requestor and responder (Count)
system.tol2bus.pktCount_system.cpu6.icache.mem_side_port::system.l2.cpu_side_port         4722                       # Packet count per connected requestor and responder (Count)
system.tol2bus.pktCount_system.cpu6.dcache.mem_side_port::system.l2.cpu_side_port         2605                       # Packet count per connected requestor and responder (Count)
system.tol2bus.pktCount_system.cpu6.itb_walker_cache.mem_side_port::system.l2.cpu_side_port          388                       # Packet count per connected requestor and responder (Count)
system.tol2bus.pktCount_system.cpu6.dtb_walker_cache.mem_side_port::system.l2.cpu_side_port          231                       # Packet count per connected requestor and responder (Count)
system.tol2bus.pktCount::total                  71254                       # Packet count per connected requestor and responder (Count)
system.tol2bus.pktSize_system.cpu0.icache.mem_side_port::system.l2.cpu_side_port         7296                       # Cumulative packet size per connected requestor and responder (Byte)
system.tol2bus.pktSize_system.cpu0.dcache.mem_side_port::system.l2.cpu_side_port        16072                       # Cumulative packet size per connected requestor and responder (Byte)
system.tol2bus.pktSize_system.cpu1.icache.mem_side_port::system.l2.cpu_side_port       139584                       # Cumulative packet size per connected requestor and responder (Byte)
system.tol2bus.pktSize_system.cpu1.dcache.mem_side_port::system.l2.cpu_side_port        42806                       # Cumulative packet size per connected requestor and responder (Byte)
system.tol2bus.pktSize_system.cpu1.itb_walker_cache.mem_side_port::system.l2.cpu_side_port          256                       # Cumulative packet size per connected requestor and responder (Byte)
system.tol2bus.pktSize_system.cpu1.dtb_walker_cache.mem_side_port::system.l2.cpu_side_port         1472                       # Cumulative packet size per connected requestor and responder (Byte)
system.tol2bus.pktSize_system.cpu2.icache.mem_side_port::system.l2.cpu_side_port       361728                       # Cumulative packet size per connected requestor and responder (Byte)
system.tol2bus.pktSize_system.cpu2.dcache.mem_side_port::system.l2.cpu_side_port       116431                       # Cumulative packet size per connected requestor and responder (Byte)
system.tol2bus.pktSize_system.cpu2.itb_walker_cache.mem_side_port::system.l2.cpu_side_port         9664                       # Cumulative packet size per connected requestor and responder (Byte)
system.tol2bus.pktSize_system.cpu2.dtb_walker_cache.mem_side_port::system.l2.cpu_side_port         7680                       # Cumulative packet size per connected requestor and responder (Byte)
system.tol2bus.pktSize_system.cpu3.icache.mem_side_port::system.l2.cpu_side_port       431744                       # Cumulative packet size per connected requestor and responder (Byte)
system.tol2bus.pktSize_system.cpu3.dcache.mem_side_port::system.l2.cpu_side_port       156807                       # Cumulative packet size per connected requestor and responder (Byte)
system.tol2bus.pktSize_system.cpu3.itb_walker_cache.mem_side_port::system.l2.cpu_side_port        10624                       # Cumulative packet size per connected requestor and responder (Byte)
system.tol2bus.pktSize_system.cpu3.dtb_walker_cache.mem_side_port::system.l2.cpu_side_port         6400                       # Cumulative packet size per connected requestor and responder (Byte)
system.tol2bus.pktSize_system.cpu4.icache.mem_side_port::system.l2.cpu_side_port       414592                       # Cumulative packet size per connected requestor and responder (Byte)
system.tol2bus.pktSize_system.cpu4.dcache.mem_side_port::system.l2.cpu_side_port        92897                       # Cumulative packet size per connected requestor and responder (Byte)
system.tol2bus.pktSize_system.cpu4.itb_walker_cache.mem_side_port::system.l2.cpu_side_port        15104                       # Cumulative packet size per connected requestor and responder (Byte)
system.tol2bus.pktSize_system.cpu4.dtb_walker_cache.mem_side_port::system.l2.cpu_side_port         9344                       # Cumulative packet size per connected requestor and responder (Byte)
system.tol2bus.pktSize_system.cpu5.icache.mem_side_port::system.l2.cpu_side_port       250752                       # Cumulative packet size per connected requestor and responder (Byte)
system.tol2bus.pktSize_system.cpu5.dcache.mem_side_port::system.l2.cpu_side_port        91094                       # Cumulative packet size per connected requestor and responder (Byte)
system.tol2bus.pktSize_system.cpu5.itb_walker_cache.mem_side_port::system.l2.cpu_side_port         3072                       # Cumulative packet size per connected requestor and responder (Byte)
system.tol2bus.pktSize_system.cpu5.dtb_walker_cache.mem_side_port::system.l2.cpu_side_port         3328                       # Cumulative packet size per connected requestor and responder (Byte)
system.tol2bus.pktSize_system.cpu6.icache.mem_side_port::system.l2.cpu_side_port       201472                       # Cumulative packet size per connected requestor and responder (Byte)
system.tol2bus.pktSize_system.cpu6.dcache.mem_side_port::system.l2.cpu_side_port        56250                       # Cumulative packet size per connected requestor and responder (Byte)
system.tol2bus.pktSize_system.cpu6.itb_walker_cache.mem_side_port::system.l2.cpu_side_port         8832                       # Cumulative packet size per connected requestor and responder (Byte)
system.tol2bus.pktSize_system.cpu6.dtb_walker_cache.mem_side_port::system.l2.cpu_side_port         5184                       # Cumulative packet size per connected requestor and responder (Byte)
system.tol2bus.pktSize::total                 2460485                       # Cumulative packet size per connected requestor and responder (Byte)
system.tol2bus.snoops                           21653                       # Total snoops (Count)
system.tol2bus.snoopTraffic                     37440                       # Total snoop traffic (Byte)
system.tol2bus.snoopFanout::samples             47177                       # Request fanout histogram (Count)
system.tol2bus.snoopFanout::mean             2.203213                       # Request fanout histogram (Count)
system.tol2bus.snoopFanout::stdev            2.427719                       # Request fanout histogram (Count)
system.tol2bus.snoopFanout::underflows              0      0.00%      0.00% # Request fanout histogram (Count)
system.tol2bus.snoopFanout::0                   10704     22.69%     22.69% # Request fanout histogram (Count)
system.tol2bus.snoopFanout::1                   16749     35.50%     58.19% # Request fanout histogram (Count)
system.tol2bus.snoopFanout::2                    4676      9.91%     68.10% # Request fanout histogram (Count)
system.tol2bus.snoopFanout::3                    3429      7.27%     75.37% # Request fanout histogram (Count)
system.tol2bus.snoopFanout::4                    2754      5.84%     81.21% # Request fanout histogram (Count)
system.tol2bus.snoopFanout::5                    2730      5.79%     87.00% # Request fanout histogram (Count)
system.tol2bus.snoopFanout::6                    3645      7.73%     94.72% # Request fanout histogram (Count)
system.tol2bus.snoopFanout::7                    1853      3.93%     98.65% # Request fanout histogram (Count)
system.tol2bus.snoopFanout::8                      32      0.07%     98.72% # Request fanout histogram (Count)
system.tol2bus.snoopFanout::9                      18      0.04%     98.76% # Request fanout histogram (Count)
system.tol2bus.snoopFanout::10                    110      0.23%     98.99% # Request fanout histogram (Count)
system.tol2bus.snoopFanout::11                     89      0.19%     99.18% # Request fanout histogram (Count)
system.tol2bus.snoopFanout::12                    146      0.31%     99.49% # Request fanout histogram (Count)
system.tol2bus.snoopFanout::13                     49      0.10%     99.59% # Request fanout histogram (Count)
system.tol2bus.snoopFanout::14                      1      0.00%     99.59% # Request fanout histogram (Count)
system.tol2bus.snoopFanout::15                     18      0.04%     99.63% # Request fanout histogram (Count)
system.tol2bus.snoopFanout::16                     82      0.17%     99.80% # Request fanout histogram (Count)
system.tol2bus.snoopFanout::17                     92      0.20%    100.00% # Request fanout histogram (Count)
system.tol2bus.snoopFanout::18                      0      0.00%    100.00% # Request fanout histogram (Count)
system.tol2bus.snoopFanout::19                      0      0.00%    100.00% # Request fanout histogram (Count)
system.tol2bus.snoopFanout::20                      0      0.00%    100.00% # Request fanout histogram (Count)
system.tol2bus.snoopFanout::21                      0      0.00%    100.00% # Request fanout histogram (Count)
system.tol2bus.snoopFanout::22                      0      0.00%    100.00% # Request fanout histogram (Count)
system.tol2bus.snoopFanout::23                      0      0.00%    100.00% # Request fanout histogram (Count)
system.tol2bus.snoopFanout::24                      0      0.00%    100.00% # Request fanout histogram (Count)
system.tol2bus.snoopFanout::25                      0      0.00%    100.00% # Request fanout histogram (Count)
system.tol2bus.snoopFanout::26                      0      0.00%    100.00% # Request fanout histogram (Count)
system.tol2bus.snoopFanout::27                      0      0.00%    100.00% # Request fanout histogram (Count)
system.tol2bus.snoopFanout::28                      0      0.00%    100.00% # Request fanout histogram (Count)
system.tol2bus.snoopFanout::overflows               0      0.00%    100.00% # Request fanout histogram (Count)
system.tol2bus.snoopFanout::min_value               0                       # Request fanout histogram (Count)
system.tol2bus.snoopFanout::max_value              17                       # Request fanout histogram (Count)
system.tol2bus.snoopFanout::total               47177                       # Request fanout histogram (Count)
system.tol2bus.power_state.pwrStateResidencyTicks::UNDEFINED   1467879500                       # Cumulative time (in ticks) in various power states (Tick)
system.tol2bus.snoop_filter.totRequests         42583                       # Total number of requests made to the snoop filter. (Count)
system.tol2bus.snoop_filter.hitSingleRequests        12109                       # Number of requests hitting in the snoop filter with a single holder of the requested data. (Count)
system.tol2bus.snoop_filter.hitMultiRequests        24805                       # Number of requests hitting in the snoop filter with multiple (>1) holders of the requested data. (Count)
system.tol2bus.snoop_filter.totSnoops           15445                       # Total number of snoops made to the snoop filter. (Count)
system.tol2bus.snoop_filter.hitSingleSnoops         7018                       # Number of snoops hitting in the snoop filter with a single holder of the requested data. (Count)
system.tol2bus.snoop_filter.hitMultiSnoops         8427                       # Number of snoops hitting in the snoop filter with multiple (>1) holders of the requested data. (Count)
system.voltage_domain.voltage                       1                       # Voltage in Volts (Volt)
system.workload.inst.arm                            0                       # number of arm instructions executed (Count)
system.workload.inst.quiesce                       51                       # number of quiesce instructions executed (Count)

---------- End Simulation Statistics   ----------

