---------- Begin Simulation Statistics ----------
simSeconds                                   0.000439                       # Number of seconds simulated (Second)
simTicks                                    439238500                       # Number of ticks simulated (Tick)
finalTick                                4832156919000                       # Number of ticks from beginning of simulation (restored from checkpoints and never reset) (Tick)
simFreq                                  1000000000000                       # The number of ticks per simulated second ((Tick/Second))
hostSeconds                                      0.87                       # Real time elapsed on the host (Second)
hostTickRate                                504859950                       # The number of ticks simulated per host second (ticks/s) ((Tick/Second))
hostMemory                                    1773620                       # Number of bytes of host memory used (Byte)
simInsts                                    277147686                       # Number of instructions simulated (Count)
simOps                                      702661351                       # Number of ops (including micro ops) simulated (Count)
hostInstRate                                318515768                       # Simulator instruction rate (inst/s) ((Count/Second))
hostOpRate                                  807532035                       # Simulator op (including micro ops) rate (op/s) ((Count/Second))
system.apicbridge.power_state.pwrStateResidencyTicks::UNDEFINED    439238500                       # Cumulative time (in ticks) in various power states (Tick)
system.bridge.power_state.pwrStateResidencyTicks::UNDEFINED    439238500                       # Cumulative time (in ticks) in various power states (Tick)
system.clk_domain.clock                           313                       # Clock period in ticks (Tick)
system.cpu0.numCycles                           80199                       # Number of cpu cycles simulated (Cycle)
system.cpu0.numWorkItemsStarted                     0                       # Number of work items this cpu started (Count)
system.cpu0.numWorkItemsCompleted                   0                       # Number of work items this cpu completed (Count)
system.cpu0.dcache.demandHits::cpu0.data         3916                       # number of demand (read+write) hits (Count)
system.cpu0.dcache.demandHits::total             3916                       # number of demand (read+write) hits (Count)
system.cpu0.dcache.overallHits::cpu0.data         3916                       # number of overall hits (Count)
system.cpu0.dcache.overallHits::total            3916                       # number of overall hits (Count)
system.cpu0.dcache.demandMisses::cpu0.data           76                       # number of demand (read+write) misses (Count)
system.cpu0.dcache.demandMisses::total             76                       # number of demand (read+write) misses (Count)
system.cpu0.dcache.overallMisses::cpu0.data           76                       # number of overall misses (Count)
system.cpu0.dcache.overallMisses::total            76                       # number of overall misses (Count)
system.cpu0.dcache.demandAccesses::cpu0.data         3992                       # number of demand (read+write) accesses (Count)
system.cpu0.dcache.demandAccesses::total         3992                       # number of demand (read+write) accesses (Count)
system.cpu0.dcache.overallAccesses::cpu0.data         3992                       # number of overall (read+write) accesses (Count)
system.cpu0.dcache.overallAccesses::total         3992                       # number of overall (read+write) accesses (Count)
system.cpu0.dcache.demandMissRate::cpu0.data     0.019038                       # miss rate for demand accesses (Ratio)
system.cpu0.dcache.demandMissRate::total     0.019038                       # miss rate for demand accesses (Ratio)
system.cpu0.dcache.overallMissRate::cpu0.data     0.019038                       # miss rate for overall accesses (Ratio)
system.cpu0.dcache.overallMissRate::total     0.019038                       # miss rate for overall accesses (Ratio)
system.cpu0.dcache.blockedCycles::no_mshrs            0                       # number of cycles access was blocked (Cycle)
system.cpu0.dcache.blockedCycles::no_targets            0                       # number of cycles access was blocked (Cycle)
system.cpu0.dcache.blockedCauses::no_mshrs            0                       # number of times access was blocked (Count)
system.cpu0.dcache.blockedCauses::no_targets            0                       # number of times access was blocked (Count)
system.cpu0.dcache.avgBlocked::no_mshrs           nan                       # average number of cycles each access was blocked ((Cycle/Count))
system.cpu0.dcache.avgBlocked::no_targets          nan                       # average number of cycles each access was blocked ((Cycle/Count))
system.cpu0.dcache.replacements                     0                       # number of replacements (Count)
system.cpu0.dcache.LockedRMWReadReq.hits::cpu0.data           40                       # number of LockedRMWReadReq hits (Count)
system.cpu0.dcache.LockedRMWReadReq.hits::total           40                       # number of LockedRMWReadReq hits (Count)
system.cpu0.dcache.LockedRMWReadReq.misses::cpu0.data           32                       # number of LockedRMWReadReq misses (Count)
system.cpu0.dcache.LockedRMWReadReq.misses::total           32                       # number of LockedRMWReadReq misses (Count)
system.cpu0.dcache.LockedRMWReadReq.accesses::cpu0.data           72                       # number of LockedRMWReadReq accesses(hits+misses) (Count)
system.cpu0.dcache.LockedRMWReadReq.accesses::total           72                       # number of LockedRMWReadReq accesses(hits+misses) (Count)
system.cpu0.dcache.LockedRMWReadReq.missRate::cpu0.data     0.444444                       # miss rate for LockedRMWReadReq accesses (Ratio)
system.cpu0.dcache.LockedRMWReadReq.missRate::total     0.444444                       # miss rate for LockedRMWReadReq accesses (Ratio)
system.cpu0.dcache.LockedRMWWriteReq.hits::cpu0.data           72                       # number of LockedRMWWriteReq hits (Count)
system.cpu0.dcache.LockedRMWWriteReq.hits::total           72                       # number of LockedRMWWriteReq hits (Count)
system.cpu0.dcache.LockedRMWWriteReq.accesses::cpu0.data           72                       # number of LockedRMWWriteReq accesses(hits+misses) (Count)
system.cpu0.dcache.LockedRMWWriteReq.accesses::total           72                       # number of LockedRMWWriteReq accesses(hits+misses) (Count)
system.cpu0.dcache.ReadReq.hits::cpu0.data         2502                       # number of ReadReq hits (Count)
system.cpu0.dcache.ReadReq.hits::total           2502                       # number of ReadReq hits (Count)
system.cpu0.dcache.ReadReq.misses::cpu0.data           42                       # number of ReadReq misses (Count)
system.cpu0.dcache.ReadReq.misses::total           42                       # number of ReadReq misses (Count)
system.cpu0.dcache.ReadReq.accesses::cpu0.data         2544                       # number of ReadReq accesses(hits+misses) (Count)
system.cpu0.dcache.ReadReq.accesses::total         2544                       # number of ReadReq accesses(hits+misses) (Count)
system.cpu0.dcache.ReadReq.missRate::cpu0.data     0.016509                       # miss rate for ReadReq accesses (Ratio)
system.cpu0.dcache.ReadReq.missRate::total     0.016509                       # miss rate for ReadReq accesses (Ratio)
system.cpu0.dcache.WriteReq.hits::cpu0.data         1414                       # number of WriteReq hits (Count)
system.cpu0.dcache.WriteReq.hits::total          1414                       # number of WriteReq hits (Count)
system.cpu0.dcache.WriteReq.misses::cpu0.data           34                       # number of WriteReq misses (Count)
system.cpu0.dcache.WriteReq.misses::total           34                       # number of WriteReq misses (Count)
system.cpu0.dcache.WriteReq.accesses::cpu0.data         1448                       # number of WriteReq accesses(hits+misses) (Count)
system.cpu0.dcache.WriteReq.accesses::total         1448                       # number of WriteReq accesses(hits+misses) (Count)
system.cpu0.dcache.WriteReq.missRate::cpu0.data     0.023481                       # miss rate for WriteReq accesses (Ratio)
system.cpu0.dcache.WriteReq.missRate::total     0.023481                       # miss rate for WriteReq accesses (Ratio)
system.cpu0.dcache.power_state.pwrStateResidencyTicks::UNDEFINED    439238500                       # Cumulative time (in ticks) in various power states (Tick)
system.cpu0.dcache.tags.tagsInUse        15541.612503                       # Average ticks per tags in use ((Tick/Count))
system.cpu0.dcache.tags.totalRefs                 993                       # Total number of references to valid blocks. (Count)
system.cpu0.dcache.tags.sampledRefs                75                       # Sample count of references to valid blocks. (Count)
system.cpu0.dcache.tags.avgRefs             13.240000                       # Average number of references to valid blocks. ((Count/Count))
system.cpu0.dcache.tags.warmupTick                  0                       # The tick when the warmup percentage was hit. (Tick)
system.cpu0.dcache.tags.occupancies::cpu0.data 15541.612503                       # Average occupied blocks per tick, per requestor ((Count/Tick))
system.cpu0.dcache.tags.avgOccs::cpu0.data     0.948585                       # Average percentage of cache occupancy ((Ratio/Tick))
system.cpu0.dcache.tags.avgOccs::total       0.948585                       # Average percentage of cache occupancy ((Ratio/Tick))
system.cpu0.dcache.tags.occupanciesTaskId::1024        15540                       # Occupied blocks per task id (Count)
system.cpu0.dcache.tags.ageTaskId_1024::2            5                       # Occupied blocks per task id, per block age (Count)
system.cpu0.dcache.tags.ageTaskId_1024::3         4044                       # Occupied blocks per task id, per block age (Count)
system.cpu0.dcache.tags.ageTaskId_1024::4        11491                       # Occupied blocks per task id, per block age (Count)
system.cpu0.dcache.tags.ratioOccsTaskId::1024     0.948486                       # Ratio of occupied blocks and all blocks, per task id (Ratio)
system.cpu0.dcache.tags.tagAccesses             33154                       # Number of tag accesses (Count)
system.cpu0.dcache.tags.dataAccesses            33154                       # Number of data accesses (Count)
system.cpu0.dcache.tags.power_state.pwrStateResidencyTicks::UNDEFINED    439238500                       # Cumulative time (in ticks) in various power states (Tick)
system.cpu0.dtb_walker_cache.blockedCycles::no_mshrs            0                       # number of cycles access was blocked (Cycle)
system.cpu0.dtb_walker_cache.blockedCycles::no_targets            0                       # number of cycles access was blocked (Cycle)
system.cpu0.dtb_walker_cache.blockedCauses::no_mshrs            0                       # number of times access was blocked (Count)
system.cpu0.dtb_walker_cache.blockedCauses::no_targets            0                       # number of times access was blocked (Count)
system.cpu0.dtb_walker_cache.avgBlocked::no_mshrs          nan                       # average number of cycles each access was blocked ((Cycle/Count))
system.cpu0.dtb_walker_cache.avgBlocked::no_targets          nan                       # average number of cycles each access was blocked ((Cycle/Count))
system.cpu0.dtb_walker_cache.replacements            0                       # number of replacements (Count)
system.cpu0.dtb_walker_cache.power_state.pwrStateResidencyTicks::UNDEFINED    439238500                       # Cumulative time (in ticks) in various power states (Tick)
system.cpu0.dtb_walker_cache.tags.tagsInUse           12                       # Average ticks per tags in use ((Tick/Count))
system.cpu0.dtb_walker_cache.tags.totalRefs            0                       # Total number of references to valid blocks. (Count)
system.cpu0.dtb_walker_cache.tags.sampledRefs            0                       # Sample count of references to valid blocks. (Count)
system.cpu0.dtb_walker_cache.tags.avgRefs          nan                       # Average number of references to valid blocks. ((Count/Count))
system.cpu0.dtb_walker_cache.tags.warmupTick            0                       # The tick when the warmup percentage was hit. (Tick)
system.cpu0.dtb_walker_cache.tags.occupancies::cpu0.mmu.dtb.walker           12                       # Average occupied blocks per tick, per requestor ((Count/Tick))
system.cpu0.dtb_walker_cache.tags.avgOccs::cpu0.mmu.dtb.walker     0.750000                       # Average percentage of cache occupancy ((Ratio/Tick))
system.cpu0.dtb_walker_cache.tags.avgOccs::total     0.750000                       # Average percentage of cache occupancy ((Ratio/Tick))
system.cpu0.dtb_walker_cache.tags.occupanciesTaskId::1024           12                       # Occupied blocks per task id (Count)
system.cpu0.dtb_walker_cache.tags.ageTaskId_1024::3           11                       # Occupied blocks per task id, per block age (Count)
system.cpu0.dtb_walker_cache.tags.ageTaskId_1024::4            1                       # Occupied blocks per task id, per block age (Count)
system.cpu0.dtb_walker_cache.tags.ratioOccsTaskId::1024     0.750000                       # Ratio of occupied blocks and all blocks, per task id (Ratio)
system.cpu0.dtb_walker_cache.tags.tagAccesses            0                       # Number of tag accesses (Count)
system.cpu0.dtb_walker_cache.tags.dataAccesses            0                       # Number of data accesses (Count)
system.cpu0.dtb_walker_cache.tags.power_state.pwrStateResidencyTicks::UNDEFINED    439238500                       # Cumulative time (in ticks) in various power states (Tick)
system.cpu0.exec_context.thread_0.numInsts         7712                       # Number of instructions committed (Count)
system.cpu0.exec_context.thread_0.numOps        17672                       # Number of ops (including micro ops) committed (Count)
system.cpu0.exec_context.thread_0.numIntAluAccesses        17160                       # Number of integer alu accesses (Count)
system.cpu0.exec_context.thread_0.numFpAluAccesses            0                       # Number of float alu accesses (Count)
system.cpu0.exec_context.thread_0.numVecAluAccesses            0                       # Number of vector alu accesses (Count)
system.cpu0.exec_context.thread_0.numCallsReturns          576                       # Number of times a function call or return occured (Count)
system.cpu0.exec_context.thread_0.numCondCtrlInsts         1056                       # Number of instructions that are conditional controls (Count)
system.cpu0.exec_context.thread_0.numIntInsts        17160                       # Number of integer instructions (Count)
system.cpu0.exec_context.thread_0.numFpInsts            0                       # Number of float instructions (Count)
system.cpu0.exec_context.thread_0.numVecInsts            0                       # Number of vector instructions (Count)
system.cpu0.exec_context.thread_0.numIntRegReads        21448                       # Number of times the integer registers were read (Count)
system.cpu0.exec_context.thread_0.numIntRegWrites        12680                       # Number of times the integer registers were written (Count)
system.cpu0.exec_context.thread_0.numFpRegReads            0                       # Number of times the floating registers were read (Count)
system.cpu0.exec_context.thread_0.numFpRegWrites            0                       # Number of times the floating registers were written (Count)
system.cpu0.exec_context.thread_0.numVecRegReads            0                       # Number of times the vector registers were read (Count)
system.cpu0.exec_context.thread_0.numVecRegWrites            0                       # Number of times the vector registers were written (Count)
system.cpu0.exec_context.thread_0.numVecPredRegReads            0                       # Number of times the predicate registers were read (Count)
system.cpu0.exec_context.thread_0.numVecPredRegWrites            0                       # Number of times the predicate registers were written (Count)
system.cpu0.exec_context.thread_0.numCCRegReads         7624                       # Number of times the CC registers were read (Count)
system.cpu0.exec_context.thread_0.numCCRegWrites         5040                       # Number of times the CC registers were written (Count)
system.cpu0.exec_context.thread_0.numMiscRegReads         7632                       # Number of times the Misc registers were read (Count)
system.cpu0.exec_context.thread_0.numMiscRegWrites          288                       # Number of times the Misc registers were written (Count)
system.cpu0.exec_context.thread_0.numMemRefs         4152                       # Number of memory refs (Count)
system.cpu0.exec_context.thread_0.numLoadInsts         2632                       # Number of load instructions (Count)
system.cpu0.exec_context.thread_0.numStoreInsts         1520                       # Number of store instructions (Count)
system.cpu0.exec_context.thread_0.numIdleCycles 78391.394113                       # Number of idle cycles (Cycle)
system.cpu0.exec_context.thread_0.numBusyCycles  1807.605887                       # Number of busy cycles (Cycle)
system.cpu0.exec_context.thread_0.notIdleFraction     0.022539                       # Percentage of non-idle cycles (Ratio)
system.cpu0.exec_context.thread_0.idleFraction     0.977461                       # Percentage of idle cycles (Ratio)
system.cpu0.exec_context.thread_0.numBranches         1848                       # Number of branches fetched (Count)
system.cpu0.exec_context.thread_0.statExecutedInstType::No_OpClass           24      0.14%      0.14% # Class of executed instruction. (Count)
system.cpu0.exec_context.thread_0.statExecutedInstType::IntAlu        13504     76.41%     76.55% # Class of executed instruction. (Count)
system.cpu0.exec_context.thread_0.statExecutedInstType::IntMult            0      0.00%     76.55% # Class of executed instruction. (Count)
system.cpu0.exec_context.thread_0.statExecutedInstType::IntDiv            0      0.00%     76.55% # Class of executed instruction. (Count)
system.cpu0.exec_context.thread_0.statExecutedInstType::FloatAdd            0      0.00%     76.55% # Class of executed instruction. (Count)
system.cpu0.exec_context.thread_0.statExecutedInstType::FloatCmp            0      0.00%     76.55% # Class of executed instruction. (Count)
system.cpu0.exec_context.thread_0.statExecutedInstType::FloatCvt            0      0.00%     76.55% # Class of executed instruction. (Count)
system.cpu0.exec_context.thread_0.statExecutedInstType::FloatMult            0      0.00%     76.55% # Class of executed instruction. (Count)
system.cpu0.exec_context.thread_0.statExecutedInstType::FloatMultAcc            0      0.00%     76.55% # Class of executed instruction. (Count)
system.cpu0.exec_context.thread_0.statExecutedInstType::FloatDiv            0      0.00%     76.55% # Class of executed instruction. (Count)
system.cpu0.exec_context.thread_0.statExecutedInstType::FloatMisc            0      0.00%     76.55% # Class of executed instruction. (Count)
system.cpu0.exec_context.thread_0.statExecutedInstType::FloatSqrt            0      0.00%     76.55% # Class of executed instruction. (Count)
system.cpu0.exec_context.thread_0.statExecutedInstType::SimdAdd            0      0.00%     76.55% # Class of executed instruction. (Count)
system.cpu0.exec_context.thread_0.statExecutedInstType::SimdAddAcc            0      0.00%     76.55% # Class of executed instruction. (Count)
system.cpu0.exec_context.thread_0.statExecutedInstType::SimdAlu            0      0.00%     76.55% # Class of executed instruction. (Count)
system.cpu0.exec_context.thread_0.statExecutedInstType::SimdCmp            0      0.00%     76.55% # Class of executed instruction. (Count)
system.cpu0.exec_context.thread_0.statExecutedInstType::SimdCvt            0      0.00%     76.55% # Class of executed instruction. (Count)
system.cpu0.exec_context.thread_0.statExecutedInstType::SimdMisc            0      0.00%     76.55% # Class of executed instruction. (Count)
system.cpu0.exec_context.thread_0.statExecutedInstType::SimdMult            0      0.00%     76.55% # Class of executed instruction. (Count)
system.cpu0.exec_context.thread_0.statExecutedInstType::SimdMultAcc            0      0.00%     76.55% # Class of executed instruction. (Count)
system.cpu0.exec_context.thread_0.statExecutedInstType::SimdShift            0      0.00%     76.55% # Class of executed instruction. (Count)
system.cpu0.exec_context.thread_0.statExecutedInstType::SimdShiftAcc            0      0.00%     76.55% # Class of executed instruction. (Count)
system.cpu0.exec_context.thread_0.statExecutedInstType::SimdDiv            0      0.00%     76.55% # Class of executed instruction. (Count)
system.cpu0.exec_context.thread_0.statExecutedInstType::SimdSqrt            0      0.00%     76.55% # Class of executed instruction. (Count)
system.cpu0.exec_context.thread_0.statExecutedInstType::SimdFloatAdd            0      0.00%     76.55% # Class of executed instruction. (Count)
system.cpu0.exec_context.thread_0.statExecutedInstType::SimdFloatAlu            0      0.00%     76.55% # Class of executed instruction. (Count)
system.cpu0.exec_context.thread_0.statExecutedInstType::SimdFloatCmp            0      0.00%     76.55% # Class of executed instruction. (Count)
system.cpu0.exec_context.thread_0.statExecutedInstType::SimdFloatCvt            0      0.00%     76.55% # Class of executed instruction. (Count)
system.cpu0.exec_context.thread_0.statExecutedInstType::SimdFloatDiv            0      0.00%     76.55% # Class of executed instruction. (Count)
system.cpu0.exec_context.thread_0.statExecutedInstType::SimdFloatMisc            0      0.00%     76.55% # Class of executed instruction. (Count)
system.cpu0.exec_context.thread_0.statExecutedInstType::SimdFloatMult            0      0.00%     76.55% # Class of executed instruction. (Count)
system.cpu0.exec_context.thread_0.statExecutedInstType::SimdFloatMultAcc            0      0.00%     76.55% # Class of executed instruction. (Count)
system.cpu0.exec_context.thread_0.statExecutedInstType::SimdFloatSqrt            0      0.00%     76.55% # Class of executed instruction. (Count)
system.cpu0.exec_context.thread_0.statExecutedInstType::SimdReduceAdd            0      0.00%     76.55% # Class of executed instruction. (Count)
system.cpu0.exec_context.thread_0.statExecutedInstType::SimdReduceAlu            0      0.00%     76.55% # Class of executed instruction. (Count)
system.cpu0.exec_context.thread_0.statExecutedInstType::SimdReduceCmp            0      0.00%     76.55% # Class of executed instruction. (Count)
system.cpu0.exec_context.thread_0.statExecutedInstType::SimdFloatReduceAdd            0      0.00%     76.55% # Class of executed instruction. (Count)
system.cpu0.exec_context.thread_0.statExecutedInstType::SimdFloatReduceCmp            0      0.00%     76.55% # Class of executed instruction. (Count)
system.cpu0.exec_context.thread_0.statExecutedInstType::SimdAes            0      0.00%     76.55% # Class of executed instruction. (Count)
system.cpu0.exec_context.thread_0.statExecutedInstType::SimdAesMix            0      0.00%     76.55% # Class of executed instruction. (Count)
system.cpu0.exec_context.thread_0.statExecutedInstType::SimdSha1Hash            0      0.00%     76.55% # Class of executed instruction. (Count)
system.cpu0.exec_context.thread_0.statExecutedInstType::SimdSha1Hash2            0      0.00%     76.55% # Class of executed instruction. (Count)
system.cpu0.exec_context.thread_0.statExecutedInstType::SimdSha256Hash            0      0.00%     76.55% # Class of executed instruction. (Count)
system.cpu0.exec_context.thread_0.statExecutedInstType::SimdSha256Hash2            0      0.00%     76.55% # Class of executed instruction. (Count)
system.cpu0.exec_context.thread_0.statExecutedInstType::SimdShaSigma2            0      0.00%     76.55% # Class of executed instruction. (Count)
system.cpu0.exec_context.thread_0.statExecutedInstType::SimdShaSigma3            0      0.00%     76.55% # Class of executed instruction. (Count)
system.cpu0.exec_context.thread_0.statExecutedInstType::SimdPredAlu            0      0.00%     76.55% # Class of executed instruction. (Count)
system.cpu0.exec_context.thread_0.statExecutedInstType::MemRead         2624     14.85%     91.40% # Class of executed instruction. (Count)
system.cpu0.exec_context.thread_0.statExecutedInstType::MemWrite         1520      8.60%    100.00% # Class of executed instruction. (Count)
system.cpu0.exec_context.thread_0.statExecutedInstType::FloatMemRead            0      0.00%    100.00% # Class of executed instruction. (Count)
system.cpu0.exec_context.thread_0.statExecutedInstType::FloatMemWrite            0      0.00%    100.00% # Class of executed instruction. (Count)
system.cpu0.exec_context.thread_0.statExecutedInstType::IprAccess            0      0.00%    100.00% # Class of executed instruction. (Count)
system.cpu0.exec_context.thread_0.statExecutedInstType::InstPrefetch            0      0.00%    100.00% # Class of executed instruction. (Count)
system.cpu0.exec_context.thread_0.statExecutedInstType::total        17672                       # Class of executed instruction. (Count)
system.cpu0.icache.demandHits::cpu0.inst        10000                       # number of demand (read+write) hits (Count)
system.cpu0.icache.demandHits::total            10000                       # number of demand (read+write) hits (Count)
system.cpu0.icache.overallHits::cpu0.inst        10000                       # number of overall hits (Count)
system.cpu0.icache.overallHits::total           10000                       # number of overall hits (Count)
system.cpu0.icache.demandMisses::cpu0.inst           16                       # number of demand (read+write) misses (Count)
system.cpu0.icache.demandMisses::total             16                       # number of demand (read+write) misses (Count)
system.cpu0.icache.overallMisses::cpu0.inst           16                       # number of overall misses (Count)
system.cpu0.icache.overallMisses::total            16                       # number of overall misses (Count)
system.cpu0.icache.demandAccesses::cpu0.inst        10016                       # number of demand (read+write) accesses (Count)
system.cpu0.icache.demandAccesses::total        10016                       # number of demand (read+write) accesses (Count)
system.cpu0.icache.overallAccesses::cpu0.inst        10016                       # number of overall (read+write) accesses (Count)
system.cpu0.icache.overallAccesses::total        10016                       # number of overall (read+write) accesses (Count)
system.cpu0.icache.demandMissRate::cpu0.inst     0.001597                       # miss rate for demand accesses (Ratio)
system.cpu0.icache.demandMissRate::total     0.001597                       # miss rate for demand accesses (Ratio)
system.cpu0.icache.overallMissRate::cpu0.inst     0.001597                       # miss rate for overall accesses (Ratio)
system.cpu0.icache.overallMissRate::total     0.001597                       # miss rate for overall accesses (Ratio)
system.cpu0.icache.blockedCycles::no_mshrs            0                       # number of cycles access was blocked (Cycle)
system.cpu0.icache.blockedCycles::no_targets            0                       # number of cycles access was blocked (Cycle)
system.cpu0.icache.blockedCauses::no_mshrs            0                       # number of times access was blocked (Count)
system.cpu0.icache.blockedCauses::no_targets            0                       # number of times access was blocked (Count)
system.cpu0.icache.avgBlocked::no_mshrs           nan                       # average number of cycles each access was blocked ((Cycle/Count))
system.cpu0.icache.avgBlocked::no_targets          nan                       # average number of cycles each access was blocked ((Cycle/Count))
system.cpu0.icache.writebacks::writebacks           16                       # number of writebacks (Count)
system.cpu0.icache.writebacks::total               16                       # number of writebacks (Count)
system.cpu0.icache.replacements                    16                       # number of replacements (Count)
system.cpu0.icache.ReadReq.hits::cpu0.inst        10000                       # number of ReadReq hits (Count)
system.cpu0.icache.ReadReq.hits::total          10000                       # number of ReadReq hits (Count)
system.cpu0.icache.ReadReq.misses::cpu0.inst           16                       # number of ReadReq misses (Count)
system.cpu0.icache.ReadReq.misses::total           16                       # number of ReadReq misses (Count)
system.cpu0.icache.ReadReq.accesses::cpu0.inst        10016                       # number of ReadReq accesses(hits+misses) (Count)
system.cpu0.icache.ReadReq.accesses::total        10016                       # number of ReadReq accesses(hits+misses) (Count)
system.cpu0.icache.ReadReq.missRate::cpu0.inst     0.001597                       # miss rate for ReadReq accesses (Ratio)
system.cpu0.icache.ReadReq.missRate::total     0.001597                       # miss rate for ReadReq accesses (Ratio)
system.cpu0.icache.power_state.pwrStateResidencyTicks::UNDEFINED    439238500                       # Cumulative time (in ticks) in various power states (Tick)
system.cpu0.icache.tags.tagsInUse                1024                       # Average ticks per tags in use ((Tick/Count))
system.cpu0.icache.tags.totalRefs                 200                       # Total number of references to valid blocks. (Count)
system.cpu0.icache.tags.sampledRefs                16                       # Sample count of references to valid blocks. (Count)
system.cpu0.icache.tags.avgRefs             12.500000                       # Average number of references to valid blocks. ((Count/Count))
system.cpu0.icache.tags.warmupTick                  0                       # The tick when the warmup percentage was hit. (Tick)
system.cpu0.icache.tags.occupancies::cpu0.inst         1024                       # Average occupied blocks per tick, per requestor ((Count/Tick))
system.cpu0.icache.tags.avgOccs::cpu0.inst            1                       # Average percentage of cache occupancy ((Ratio/Tick))
system.cpu0.icache.tags.avgOccs::total              1                       # Average percentage of cache occupancy ((Ratio/Tick))
system.cpu0.icache.tags.occupanciesTaskId::1024         1024                       # Occupied blocks per task id (Count)
system.cpu0.icache.tags.ageTaskId_1024::2            5                       # Occupied blocks per task id, per block age (Count)
system.cpu0.icache.tags.ageTaskId_1024::3         1009                       # Occupied blocks per task id, per block age (Count)
system.cpu0.icache.tags.ageTaskId_1024::4           10                       # Occupied blocks per task id, per block age (Count)
system.cpu0.icache.tags.ratioOccsTaskId::1024            1                       # Ratio of occupied blocks and all blocks, per task id (Ratio)
system.cpu0.icache.tags.tagAccesses             20048                       # Number of tag accesses (Count)
system.cpu0.icache.tags.dataAccesses            20048                       # Number of data accesses (Count)
system.cpu0.icache.tags.power_state.pwrStateResidencyTicks::UNDEFINED    439238500                       # Cumulative time (in ticks) in various power states (Tick)
system.cpu0.interrupts.clk_domain.clock          8000                       # Clock period in ticks (Tick)
system.cpu0.itb_walker_cache.blockedCycles::no_mshrs            0                       # number of cycles access was blocked (Cycle)
system.cpu0.itb_walker_cache.blockedCycles::no_targets            0                       # number of cycles access was blocked (Cycle)
system.cpu0.itb_walker_cache.blockedCauses::no_mshrs            0                       # number of times access was blocked (Count)
system.cpu0.itb_walker_cache.blockedCauses::no_targets            0                       # number of times access was blocked (Count)
system.cpu0.itb_walker_cache.avgBlocked::no_mshrs          nan                       # average number of cycles each access was blocked ((Cycle/Count))
system.cpu0.itb_walker_cache.avgBlocked::no_targets          nan                       # average number of cycles each access was blocked ((Cycle/Count))
system.cpu0.itb_walker_cache.replacements            0                       # number of replacements (Count)
system.cpu0.itb_walker_cache.power_state.pwrStateResidencyTicks::UNDEFINED    439238500                       # Cumulative time (in ticks) in various power states (Tick)
system.cpu0.itb_walker_cache.tags.tagsInUse           14                       # Average ticks per tags in use ((Tick/Count))
system.cpu0.itb_walker_cache.tags.totalRefs            0                       # Total number of references to valid blocks. (Count)
system.cpu0.itb_walker_cache.tags.sampledRefs            0                       # Sample count of references to valid blocks. (Count)
system.cpu0.itb_walker_cache.tags.avgRefs          nan                       # Average number of references to valid blocks. ((Count/Count))
system.cpu0.itb_walker_cache.tags.warmupTick            0                       # The tick when the warmup percentage was hit. (Tick)
system.cpu0.itb_walker_cache.tags.occupancies::cpu0.mmu.itb.walker           14                       # Average occupied blocks per tick, per requestor ((Count/Tick))
system.cpu0.itb_walker_cache.tags.avgOccs::cpu0.mmu.itb.walker     0.875000                       # Average percentage of cache occupancy ((Ratio/Tick))
system.cpu0.itb_walker_cache.tags.avgOccs::total     0.875000                       # Average percentage of cache occupancy ((Ratio/Tick))
system.cpu0.itb_walker_cache.tags.occupanciesTaskId::1024           14                       # Occupied blocks per task id (Count)
system.cpu0.itb_walker_cache.tags.ageTaskId_1024::3           14                       # Occupied blocks per task id, per block age (Count)
system.cpu0.itb_walker_cache.tags.ratioOccsTaskId::1024     0.875000                       # Ratio of occupied blocks and all blocks, per task id (Ratio)
system.cpu0.itb_walker_cache.tags.tagAccesses            0                       # Number of tag accesses (Count)
system.cpu0.itb_walker_cache.tags.dataAccesses            0                       # Number of data accesses (Count)
system.cpu0.itb_walker_cache.tags.power_state.pwrStateResidencyTicks::UNDEFINED    439238500                       # Cumulative time (in ticks) in various power states (Tick)
system.cpu0.mmu.dtb.rdAccesses                   2624                       # TLB accesses on read requests (Count)
system.cpu0.mmu.dtb.wrAccesses                   1528                       # TLB accesses on write requests (Count)
system.cpu0.mmu.dtb.rdMisses                        0                       # TLB misses on read requests (Count)
system.cpu0.mmu.dtb.wrMisses                        0                       # TLB misses on write requests (Count)
system.cpu0.mmu.dtb.walker.power_state.pwrStateResidencyTicks::UNDEFINED    439238500                       # Cumulative time (in ticks) in various power states (Tick)
system.cpu0.mmu.itb.rdAccesses                      0                       # TLB accesses on read requests (Count)
system.cpu0.mmu.itb.wrAccesses                  10016                       # TLB accesses on write requests (Count)
system.cpu0.mmu.itb.rdMisses                        0                       # TLB misses on read requests (Count)
system.cpu0.mmu.itb.wrMisses                        0                       # TLB misses on write requests (Count)
system.cpu0.mmu.itb.walker.power_state.pwrStateResidencyTicks::UNDEFINED    439238500                       # Cumulative time (in ticks) in various power states (Tick)
system.cpu0.power_state.numTransitions             16                       # Number of power state transitions (Count)
system.cpu0.power_state.ticksClkGated::samples            9                       # Distribution of time spent in the clock gated state (Tick)
system.cpu0.power_state.ticksClkGated::mean 47704277.777778                       # Distribution of time spent in the clock gated state (Tick)
system.cpu0.power_state.ticksClkGated::stdev 132908489.098964                       # Distribution of time spent in the clock gated state (Tick)
system.cpu0.power_state.ticksClkGated::1000-5e+10            9    100.00%    100.00% # Distribution of time spent in the clock gated state (Tick)
system.cpu0.power_state.ticksClkGated::min_value       666000                       # Distribution of time spent in the clock gated state (Tick)
system.cpu0.power_state.ticksClkGated::max_value    402116000                       # Distribution of time spent in the clock gated state (Tick)
system.cpu0.power_state.ticksClkGated::total            9                       # Distribution of time spent in the clock gated state (Tick)
system.cpu0.power_state.pwrStateResidencyTicks::ON      9900000                       # Cumulative time (in ticks) in various power states (Tick)
system.cpu0.power_state.pwrStateResidencyTicks::CLK_GATED    429338500                       # Cumulative time (in ticks) in various power states (Tick)
system.cpu0.thread_0.numInsts                       0                       # Number of Instructions committed (Count)
system.cpu0.thread_0.numOps                         0                       # Number of Ops committed (Count)
system.cpu0.thread_0.numMemRefs                     0                       # Number of Memory References (Count)
system.cpu1.numCycles                          524412                       # Number of cpu cycles simulated (Cycle)
system.cpu1.numWorkItemsStarted                     0                       # Number of work items this cpu started (Count)
system.cpu1.numWorkItemsCompleted                   0                       # Number of work items this cpu completed (Count)
system.cpu1.dcache.demandHits::cpu1.data        49168                       # number of demand (read+write) hits (Count)
system.cpu1.dcache.demandHits::total            49168                       # number of demand (read+write) hits (Count)
system.cpu1.dcache.overallHits::cpu1.data        49168                       # number of overall hits (Count)
system.cpu1.dcache.overallHits::total           49168                       # number of overall hits (Count)
system.cpu1.dcache.demandMisses::cpu1.data          533                       # number of demand (read+write) misses (Count)
system.cpu1.dcache.demandMisses::total            533                       # number of demand (read+write) misses (Count)
system.cpu1.dcache.overallMisses::cpu1.data          533                       # number of overall misses (Count)
system.cpu1.dcache.overallMisses::total           533                       # number of overall misses (Count)
system.cpu1.dcache.demandAccesses::cpu1.data        49701                       # number of demand (read+write) accesses (Count)
system.cpu1.dcache.demandAccesses::total        49701                       # number of demand (read+write) accesses (Count)
system.cpu1.dcache.overallAccesses::cpu1.data        49701                       # number of overall (read+write) accesses (Count)
system.cpu1.dcache.overallAccesses::total        49701                       # number of overall (read+write) accesses (Count)
system.cpu1.dcache.demandMissRate::cpu1.data     0.010724                       # miss rate for demand accesses (Ratio)
system.cpu1.dcache.demandMissRate::total     0.010724                       # miss rate for demand accesses (Ratio)
system.cpu1.dcache.overallMissRate::cpu1.data     0.010724                       # miss rate for overall accesses (Ratio)
system.cpu1.dcache.overallMissRate::total     0.010724                       # miss rate for overall accesses (Ratio)
system.cpu1.dcache.blockedCycles::no_mshrs            0                       # number of cycles access was blocked (Cycle)
system.cpu1.dcache.blockedCycles::no_targets            0                       # number of cycles access was blocked (Cycle)
system.cpu1.dcache.blockedCauses::no_mshrs            0                       # number of times access was blocked (Count)
system.cpu1.dcache.blockedCauses::no_targets            0                       # number of times access was blocked (Count)
system.cpu1.dcache.avgBlocked::no_mshrs           nan                       # average number of cycles each access was blocked ((Cycle/Count))
system.cpu1.dcache.avgBlocked::no_targets          nan                       # average number of cycles each access was blocked ((Cycle/Count))
system.cpu1.dcache.writebacks::writebacks            7                       # number of writebacks (Count)
system.cpu1.dcache.writebacks::total                7                       # number of writebacks (Count)
system.cpu1.dcache.replacements                     9                       # number of replacements (Count)
system.cpu1.dcache.LockedRMWReadReq.hits::cpu1.data           79                       # number of LockedRMWReadReq hits (Count)
system.cpu1.dcache.LockedRMWReadReq.hits::total           79                       # number of LockedRMWReadReq hits (Count)
system.cpu1.dcache.LockedRMWReadReq.misses::cpu1.data           73                       # number of LockedRMWReadReq misses (Count)
system.cpu1.dcache.LockedRMWReadReq.misses::total           73                       # number of LockedRMWReadReq misses (Count)
system.cpu1.dcache.LockedRMWReadReq.accesses::cpu1.data          152                       # number of LockedRMWReadReq accesses(hits+misses) (Count)
system.cpu1.dcache.LockedRMWReadReq.accesses::total          152                       # number of LockedRMWReadReq accesses(hits+misses) (Count)
system.cpu1.dcache.LockedRMWReadReq.missRate::cpu1.data     0.480263                       # miss rate for LockedRMWReadReq accesses (Ratio)
system.cpu1.dcache.LockedRMWReadReq.missRate::total     0.480263                       # miss rate for LockedRMWReadReq accesses (Ratio)
system.cpu1.dcache.LockedRMWWriteReq.hits::cpu1.data          152                       # number of LockedRMWWriteReq hits (Count)
system.cpu1.dcache.LockedRMWWriteReq.hits::total          152                       # number of LockedRMWWriteReq hits (Count)
system.cpu1.dcache.LockedRMWWriteReq.accesses::cpu1.data          152                       # number of LockedRMWWriteReq accesses(hits+misses) (Count)
system.cpu1.dcache.LockedRMWWriteReq.accesses::total          152                       # number of LockedRMWWriteReq accesses(hits+misses) (Count)
system.cpu1.dcache.ReadReq.hits::cpu1.data        34397                       # number of ReadReq hits (Count)
system.cpu1.dcache.ReadReq.hits::total          34397                       # number of ReadReq hits (Count)
system.cpu1.dcache.ReadReq.misses::cpu1.data          244                       # number of ReadReq misses (Count)
system.cpu1.dcache.ReadReq.misses::total          244                       # number of ReadReq misses (Count)
system.cpu1.dcache.ReadReq.accesses::cpu1.data        34641                       # number of ReadReq accesses(hits+misses) (Count)
system.cpu1.dcache.ReadReq.accesses::total        34641                       # number of ReadReq accesses(hits+misses) (Count)
system.cpu1.dcache.ReadReq.missRate::cpu1.data     0.007044                       # miss rate for ReadReq accesses (Ratio)
system.cpu1.dcache.ReadReq.missRate::total     0.007044                       # miss rate for ReadReq accesses (Ratio)
system.cpu1.dcache.WriteReq.hits::cpu1.data        14771                       # number of WriteReq hits (Count)
system.cpu1.dcache.WriteReq.hits::total         14771                       # number of WriteReq hits (Count)
system.cpu1.dcache.WriteReq.misses::cpu1.data          289                       # number of WriteReq misses (Count)
system.cpu1.dcache.WriteReq.misses::total          289                       # number of WriteReq misses (Count)
system.cpu1.dcache.WriteReq.accesses::cpu1.data        15060                       # number of WriteReq accesses(hits+misses) (Count)
system.cpu1.dcache.WriteReq.accesses::total        15060                       # number of WriteReq accesses(hits+misses) (Count)
system.cpu1.dcache.WriteReq.missRate::cpu1.data     0.019190                       # miss rate for WriteReq accesses (Ratio)
system.cpu1.dcache.WriteReq.missRate::total     0.019190                       # miss rate for WriteReq accesses (Ratio)
system.cpu1.dcache.power_state.pwrStateResidencyTicks::UNDEFINED    439238500                       # Cumulative time (in ticks) in various power states (Tick)
system.cpu1.dcache.tags.tagsInUse        11336.876362                       # Average ticks per tags in use ((Tick/Count))
system.cpu1.dcache.tags.totalRefs                7212                       # Total number of references to valid blocks. (Count)
system.cpu1.dcache.tags.sampledRefs               600                       # Sample count of references to valid blocks. (Count)
system.cpu1.dcache.tags.avgRefs             12.020000                       # Average number of references to valid blocks. ((Count/Count))
system.cpu1.dcache.tags.warmupTick                  0                       # The tick when the warmup percentage was hit. (Tick)
system.cpu1.dcache.tags.occupancies::cpu1.data 11336.876362                       # Average occupied blocks per tick, per requestor ((Count/Tick))
system.cpu1.dcache.tags.avgOccs::cpu1.data     0.691948                       # Average percentage of cache occupancy ((Ratio/Tick))
system.cpu1.dcache.tags.avgOccs::total       0.691948                       # Average percentage of cache occupancy ((Ratio/Tick))
system.cpu1.dcache.tags.occupanciesTaskId::1024        11371                       # Occupied blocks per task id (Count)
system.cpu1.dcache.tags.ageTaskId_1024::2          231                       # Occupied blocks per task id, per block age (Count)
system.cpu1.dcache.tags.ageTaskId_1024::3         3730                       # Occupied blocks per task id, per block age (Count)
system.cpu1.dcache.tags.ageTaskId_1024::4         7410                       # Occupied blocks per task id, per block age (Count)
system.cpu1.dcache.tags.ratioOccsTaskId::1024     0.694031                       # Ratio of occupied blocks and all blocks, per task id (Ratio)
system.cpu1.dcache.tags.tagAccesses            400553                       # Number of tag accesses (Count)
system.cpu1.dcache.tags.dataAccesses           400553                       # Number of data accesses (Count)
system.cpu1.dcache.tags.power_state.pwrStateResidencyTicks::UNDEFINED    439238500                       # Cumulative time (in ticks) in various power states (Tick)
system.cpu1.dtb_walker_cache.demandHits::cpu1.mmu.dtb.walker           73                       # number of demand (read+write) hits (Count)
system.cpu1.dtb_walker_cache.demandHits::total           73                       # number of demand (read+write) hits (Count)
system.cpu1.dtb_walker_cache.overallHits::cpu1.mmu.dtb.walker           73                       # number of overall hits (Count)
system.cpu1.dtb_walker_cache.overallHits::total           73                       # number of overall hits (Count)
system.cpu1.dtb_walker_cache.demandMisses::cpu1.mmu.dtb.walker           95                       # number of demand (read+write) misses (Count)
system.cpu1.dtb_walker_cache.demandMisses::total           95                       # number of demand (read+write) misses (Count)
system.cpu1.dtb_walker_cache.overallMisses::cpu1.mmu.dtb.walker           95                       # number of overall misses (Count)
system.cpu1.dtb_walker_cache.overallMisses::total           95                       # number of overall misses (Count)
system.cpu1.dtb_walker_cache.demandAccesses::cpu1.mmu.dtb.walker          168                       # number of demand (read+write) accesses (Count)
system.cpu1.dtb_walker_cache.demandAccesses::total          168                       # number of demand (read+write) accesses (Count)
system.cpu1.dtb_walker_cache.overallAccesses::cpu1.mmu.dtb.walker          168                       # number of overall (read+write) accesses (Count)
system.cpu1.dtb_walker_cache.overallAccesses::total          168                       # number of overall (read+write) accesses (Count)
system.cpu1.dtb_walker_cache.demandMissRate::cpu1.mmu.dtb.walker     0.565476                       # miss rate for demand accesses (Ratio)
system.cpu1.dtb_walker_cache.demandMissRate::total     0.565476                       # miss rate for demand accesses (Ratio)
system.cpu1.dtb_walker_cache.overallMissRate::cpu1.mmu.dtb.walker     0.565476                       # miss rate for overall accesses (Ratio)
system.cpu1.dtb_walker_cache.overallMissRate::total     0.565476                       # miss rate for overall accesses (Ratio)
system.cpu1.dtb_walker_cache.blockedCycles::no_mshrs            0                       # number of cycles access was blocked (Cycle)
system.cpu1.dtb_walker_cache.blockedCycles::no_targets            0                       # number of cycles access was blocked (Cycle)
system.cpu1.dtb_walker_cache.blockedCauses::no_mshrs            0                       # number of times access was blocked (Count)
system.cpu1.dtb_walker_cache.blockedCauses::no_targets            0                       # number of times access was blocked (Count)
system.cpu1.dtb_walker_cache.avgBlocked::no_mshrs          nan                       # average number of cycles each access was blocked ((Cycle/Count))
system.cpu1.dtb_walker_cache.avgBlocked::no_targets          nan                       # average number of cycles each access was blocked ((Cycle/Count))
system.cpu1.dtb_walker_cache.replacements           90                       # number of replacements (Count)
system.cpu1.dtb_walker_cache.ReadReq.hits::cpu1.mmu.dtb.walker           73                       # number of ReadReq hits (Count)
system.cpu1.dtb_walker_cache.ReadReq.hits::total           73                       # number of ReadReq hits (Count)
system.cpu1.dtb_walker_cache.ReadReq.misses::cpu1.mmu.dtb.walker           95                       # number of ReadReq misses (Count)
system.cpu1.dtb_walker_cache.ReadReq.misses::total           95                       # number of ReadReq misses (Count)
system.cpu1.dtb_walker_cache.ReadReq.accesses::cpu1.mmu.dtb.walker          168                       # number of ReadReq accesses(hits+misses) (Count)
system.cpu1.dtb_walker_cache.ReadReq.accesses::total          168                       # number of ReadReq accesses(hits+misses) (Count)
system.cpu1.dtb_walker_cache.ReadReq.missRate::cpu1.mmu.dtb.walker     0.565476                       # miss rate for ReadReq accesses (Ratio)
system.cpu1.dtb_walker_cache.ReadReq.missRate::total     0.565476                       # miss rate for ReadReq accesses (Ratio)
system.cpu1.dtb_walker_cache.power_state.pwrStateResidencyTicks::UNDEFINED    439238500                       # Cumulative time (in ticks) in various power states (Tick)
system.cpu1.dtb_walker_cache.tags.tagsInUse     7.675088                       # Average ticks per tags in use ((Tick/Count))
system.cpu1.dtb_walker_cache.tags.totalRefs          102                       # Total number of references to valid blocks. (Count)
system.cpu1.dtb_walker_cache.tags.sampledRefs           92                       # Sample count of references to valid blocks. (Count)
system.cpu1.dtb_walker_cache.tags.avgRefs     1.108696                       # Average number of references to valid blocks. ((Count/Count))
system.cpu1.dtb_walker_cache.tags.warmupTick            0                       # The tick when the warmup percentage was hit. (Tick)
system.cpu1.dtb_walker_cache.tags.occupancies::cpu1.mmu.dtb.walker     7.675088                       # Average occupied blocks per tick, per requestor ((Count/Tick))
system.cpu1.dtb_walker_cache.tags.avgOccs::cpu1.mmu.dtb.walker     0.479693                       # Average percentage of cache occupancy ((Ratio/Tick))
system.cpu1.dtb_walker_cache.tags.avgOccs::total     0.479693                       # Average percentage of cache occupancy ((Ratio/Tick))
system.cpu1.dtb_walker_cache.tags.occupanciesTaskId::1024            7                       # Occupied blocks per task id (Count)
system.cpu1.dtb_walker_cache.tags.ageTaskId_1024::2            5                       # Occupied blocks per task id, per block age (Count)
system.cpu1.dtb_walker_cache.tags.ageTaskId_1024::3            2                       # Occupied blocks per task id, per block age (Count)
system.cpu1.dtb_walker_cache.tags.ratioOccsTaskId::1024     0.437500                       # Ratio of occupied blocks and all blocks, per task id (Ratio)
system.cpu1.dtb_walker_cache.tags.tagAccesses          431                       # Number of tag accesses (Count)
system.cpu1.dtb_walker_cache.tags.dataAccesses          431                       # Number of data accesses (Count)
system.cpu1.dtb_walker_cache.tags.power_state.pwrStateResidencyTicks::UNDEFINED    439238500                       # Cumulative time (in ticks) in various power states (Tick)
system.cpu1.exec_context.thread_0.numInsts       154798                       # Number of instructions committed (Count)
system.cpu1.exec_context.thread_0.numOps       287800                       # Number of ops (including micro ops) committed (Count)
system.cpu1.exec_context.thread_0.numIntAluAccesses       172588                       # Number of integer alu accesses (Count)
system.cpu1.exec_context.thread_0.numFpAluAccesses       146100                       # Number of float alu accesses (Count)
system.cpu1.exec_context.thread_0.numVecAluAccesses            0                       # Number of vector alu accesses (Count)
system.cpu1.exec_context.thread_0.numCallsReturns         6098                       # Number of times a function call or return occured (Count)
system.cpu1.exec_context.thread_0.numCondCtrlInsts        11266                       # Number of instructions that are conditional controls (Count)
system.cpu1.exec_context.thread_0.numIntInsts       172588                       # Number of integer instructions (Count)
system.cpu1.exec_context.thread_0.numFpInsts       146100                       # Number of float instructions (Count)
system.cpu1.exec_context.thread_0.numVecInsts            0                       # Number of vector instructions (Count)
system.cpu1.exec_context.thread_0.numIntRegReads       184039                       # Number of times the integer registers were read (Count)
system.cpu1.exec_context.thread_0.numIntRegWrites       109504                       # Number of times the integer registers were written (Count)
system.cpu1.exec_context.thread_0.numFpRegReads       224700                       # Number of times the floating registers were read (Count)
system.cpu1.exec_context.thread_0.numFpRegWrites       134200                       # Number of times the floating registers were written (Count)
system.cpu1.exec_context.thread_0.numVecRegReads            0                       # Number of times the vector registers were read (Count)
system.cpu1.exec_context.thread_0.numVecRegWrites            0                       # Number of times the vector registers were written (Count)
system.cpu1.exec_context.thread_0.numVecPredRegReads            0                       # Number of times the predicate registers were read (Count)
system.cpu1.exec_context.thread_0.numVecPredRegWrites            0                       # Number of times the predicate registers were written (Count)
system.cpu1.exec_context.thread_0.numCCRegReads        76956                       # Number of times the CC registers were read (Count)
system.cpu1.exec_context.thread_0.numCCRegWrites        56829                       # Number of times the CC registers were written (Count)
system.cpu1.exec_context.thread_0.numMiscRegReads        95222                       # Number of times the Misc registers were read (Count)
system.cpu1.exec_context.thread_0.numMiscRegWrites          524                       # Number of times the Misc registers were written (Count)
system.cpu1.exec_context.thread_0.numMemRefs        50022                       # Number of memory refs (Count)
system.cpu1.exec_context.thread_0.numLoadInsts        34807                       # Number of load instructions (Count)
system.cpu1.exec_context.thread_0.numStoreInsts        15215                       # Number of store instructions (Count)
system.cpu1.exec_context.thread_0.numIdleCycles 312392.378778                       # Number of idle cycles (Cycle)
system.cpu1.exec_context.thread_0.numBusyCycles 212019.621222                       # Number of busy cycles (Cycle)
system.cpu1.exec_context.thread_0.notIdleFraction     0.404300                       # Percentage of non-idle cycles (Ratio)
system.cpu1.exec_context.thread_0.idleFraction     0.595700                       # Percentage of idle cycles (Ratio)
system.cpu1.exec_context.thread_0.numBranches        17800                       # Number of branches fetched (Count)
system.cpu1.exec_context.thread_0.statExecutedInstType::No_OpClass           46      0.02%      0.02% # Class of executed instruction. (Count)
system.cpu1.exec_context.thread_0.statExecutedInstType::IntAlu       152917     53.13%     53.15% # Class of executed instruction. (Count)
system.cpu1.exec_context.thread_0.statExecutedInstType::IntMult           18      0.01%     53.16% # Class of executed instruction. (Count)
system.cpu1.exec_context.thread_0.statExecutedInstType::IntDiv            7      0.00%     53.16% # Class of executed instruction. (Count)
system.cpu1.exec_context.thread_0.statExecutedInstType::FloatAdd        24000      8.34%     61.50% # Class of executed instruction. (Count)
system.cpu1.exec_context.thread_0.statExecutedInstType::FloatCmp            0      0.00%     61.50% # Class of executed instruction. (Count)
system.cpu1.exec_context.thread_0.statExecutedInstType::FloatCvt            0      0.00%     61.50% # Class of executed instruction. (Count)
system.cpu1.exec_context.thread_0.statExecutedInstType::FloatMult            0      0.00%     61.50% # Class of executed instruction. (Count)
system.cpu1.exec_context.thread_0.statExecutedInstType::FloatMultAcc            0      0.00%     61.50% # Class of executed instruction. (Count)
system.cpu1.exec_context.thread_0.statExecutedInstType::FloatDiv            0      0.00%     61.50% # Class of executed instruction. (Count)
system.cpu1.exec_context.thread_0.statExecutedInstType::FloatMisc            0      0.00%     61.50% # Class of executed instruction. (Count)
system.cpu1.exec_context.thread_0.statExecutedInstType::FloatSqrt            0      0.00%     61.50% # Class of executed instruction. (Count)
system.cpu1.exec_context.thread_0.statExecutedInstType::SimdAdd            0      0.00%     61.50% # Class of executed instruction. (Count)
system.cpu1.exec_context.thread_0.statExecutedInstType::SimdAddAcc            0      0.00%     61.50% # Class of executed instruction. (Count)
system.cpu1.exec_context.thread_0.statExecutedInstType::SimdAlu         2000      0.69%     62.19% # Class of executed instruction. (Count)
system.cpu1.exec_context.thread_0.statExecutedInstType::SimdCmp            0      0.00%     62.19% # Class of executed instruction. (Count)
system.cpu1.exec_context.thread_0.statExecutedInstType::SimdCvt            0      0.00%     62.19% # Class of executed instruction. (Count)
system.cpu1.exec_context.thread_0.statExecutedInstType::SimdMisc         7600      2.64%     64.83% # Class of executed instruction. (Count)
system.cpu1.exec_context.thread_0.statExecutedInstType::SimdMult            0      0.00%     64.83% # Class of executed instruction. (Count)
system.cpu1.exec_context.thread_0.statExecutedInstType::SimdMultAcc            0      0.00%     64.83% # Class of executed instruction. (Count)
system.cpu1.exec_context.thread_0.statExecutedInstType::SimdShift            0      0.00%     64.83% # Class of executed instruction. (Count)
system.cpu1.exec_context.thread_0.statExecutedInstType::SimdShiftAcc            0      0.00%     64.83% # Class of executed instruction. (Count)
system.cpu1.exec_context.thread_0.statExecutedInstType::SimdDiv            0      0.00%     64.83% # Class of executed instruction. (Count)
system.cpu1.exec_context.thread_0.statExecutedInstType::SimdSqrt            0      0.00%     64.83% # Class of executed instruction. (Count)
system.cpu1.exec_context.thread_0.statExecutedInstType::SimdFloatAdd        15600      5.42%     70.25% # Class of executed instruction. (Count)
system.cpu1.exec_context.thread_0.statExecutedInstType::SimdFloatAlu            0      0.00%     70.25% # Class of executed instruction. (Count)
system.cpu1.exec_context.thread_0.statExecutedInstType::SimdFloatCmp            0      0.00%     70.25% # Class of executed instruction. (Count)
system.cpu1.exec_context.thread_0.statExecutedInstType::SimdFloatCvt        16800      5.84%     76.09% # Class of executed instruction. (Count)
system.cpu1.exec_context.thread_0.statExecutedInstType::SimdFloatDiv         1000      0.35%     76.44% # Class of executed instruction. (Count)
system.cpu1.exec_context.thread_0.statExecutedInstType::SimdFloatMisc            0      0.00%     76.44% # Class of executed instruction. (Count)
system.cpu1.exec_context.thread_0.statExecutedInstType::SimdFloatMult        17600      6.12%     82.55% # Class of executed instruction. (Count)
system.cpu1.exec_context.thread_0.statExecutedInstType::SimdFloatMultAcc            0      0.00%     82.55% # Class of executed instruction. (Count)
system.cpu1.exec_context.thread_0.statExecutedInstType::SimdFloatSqrt          200      0.07%     82.62% # Class of executed instruction. (Count)
system.cpu1.exec_context.thread_0.statExecutedInstType::SimdReduceAdd            0      0.00%     82.62% # Class of executed instruction. (Count)
system.cpu1.exec_context.thread_0.statExecutedInstType::SimdReduceAlu            0      0.00%     82.62% # Class of executed instruction. (Count)
system.cpu1.exec_context.thread_0.statExecutedInstType::SimdReduceCmp            0      0.00%     82.62% # Class of executed instruction. (Count)
system.cpu1.exec_context.thread_0.statExecutedInstType::SimdFloatReduceAdd            0      0.00%     82.62% # Class of executed instruction. (Count)
system.cpu1.exec_context.thread_0.statExecutedInstType::SimdFloatReduceCmp            0      0.00%     82.62% # Class of executed instruction. (Count)
system.cpu1.exec_context.thread_0.statExecutedInstType::SimdAes            0      0.00%     82.62% # Class of executed instruction. (Count)
system.cpu1.exec_context.thread_0.statExecutedInstType::SimdAesMix            0      0.00%     82.62% # Class of executed instruction. (Count)
system.cpu1.exec_context.thread_0.statExecutedInstType::SimdSha1Hash            0      0.00%     82.62% # Class of executed instruction. (Count)
system.cpu1.exec_context.thread_0.statExecutedInstType::SimdSha1Hash2            0      0.00%     82.62% # Class of executed instruction. (Count)
system.cpu1.exec_context.thread_0.statExecutedInstType::SimdSha256Hash            0      0.00%     82.62% # Class of executed instruction. (Count)
system.cpu1.exec_context.thread_0.statExecutedInstType::SimdSha256Hash2            0      0.00%     82.62% # Class of executed instruction. (Count)
system.cpu1.exec_context.thread_0.statExecutedInstType::SimdShaSigma2            0      0.00%     82.62% # Class of executed instruction. (Count)
system.cpu1.exec_context.thread_0.statExecutedInstType::SimdShaSigma3            0      0.00%     82.62% # Class of executed instruction. (Count)
system.cpu1.exec_context.thread_0.statExecutedInstType::SimdPredAlu            0      0.00%     82.62% # Class of executed instruction. (Count)
system.cpu1.exec_context.thread_0.statExecutedInstType::MemRead        12797      4.45%     87.07% # Class of executed instruction. (Count)
system.cpu1.exec_context.thread_0.statExecutedInstType::MemWrite         6315      2.19%     89.26% # Class of executed instruction. (Count)
system.cpu1.exec_context.thread_0.statExecutedInstType::FloatMemRead        22000      7.64%     96.91% # Class of executed instruction. (Count)
system.cpu1.exec_context.thread_0.statExecutedInstType::FloatMemWrite         8900      3.09%    100.00% # Class of executed instruction. (Count)
system.cpu1.exec_context.thread_0.statExecutedInstType::IprAccess            0      0.00%    100.00% # Class of executed instruction. (Count)
system.cpu1.exec_context.thread_0.statExecutedInstType::InstPrefetch            0      0.00%    100.00% # Class of executed instruction. (Count)
system.cpu1.exec_context.thread_0.statExecutedInstType::total       287800                       # Class of executed instruction. (Count)
system.cpu1.icache.demandHits::cpu1.inst       222187                       # number of demand (read+write) hits (Count)
system.cpu1.icache.demandHits::total           222187                       # number of demand (read+write) hits (Count)
system.cpu1.icache.overallHits::cpu1.inst       222187                       # number of overall hits (Count)
system.cpu1.icache.overallHits::total          222187                       # number of overall hits (Count)
system.cpu1.icache.demandMisses::cpu1.inst          326                       # number of demand (read+write) misses (Count)
system.cpu1.icache.demandMisses::total            326                       # number of demand (read+write) misses (Count)
system.cpu1.icache.overallMisses::cpu1.inst          326                       # number of overall misses (Count)
system.cpu1.icache.overallMisses::total           326                       # number of overall misses (Count)
system.cpu1.icache.demandAccesses::cpu1.inst       222513                       # number of demand (read+write) accesses (Count)
system.cpu1.icache.demandAccesses::total       222513                       # number of demand (read+write) accesses (Count)
system.cpu1.icache.overallAccesses::cpu1.inst       222513                       # number of overall (read+write) accesses (Count)
system.cpu1.icache.overallAccesses::total       222513                       # number of overall (read+write) accesses (Count)
system.cpu1.icache.demandMissRate::cpu1.inst     0.001465                       # miss rate for demand accesses (Ratio)
system.cpu1.icache.demandMissRate::total     0.001465                       # miss rate for demand accesses (Ratio)
system.cpu1.icache.overallMissRate::cpu1.inst     0.001465                       # miss rate for overall accesses (Ratio)
system.cpu1.icache.overallMissRate::total     0.001465                       # miss rate for overall accesses (Ratio)
system.cpu1.icache.blockedCycles::no_mshrs            0                       # number of cycles access was blocked (Cycle)
system.cpu1.icache.blockedCycles::no_targets            0                       # number of cycles access was blocked (Cycle)
system.cpu1.icache.blockedCauses::no_mshrs            0                       # number of times access was blocked (Count)
system.cpu1.icache.blockedCauses::no_targets            0                       # number of times access was blocked (Count)
system.cpu1.icache.avgBlocked::no_mshrs           nan                       # average number of cycles each access was blocked ((Cycle/Count))
system.cpu1.icache.avgBlocked::no_targets          nan                       # average number of cycles each access was blocked ((Cycle/Count))
system.cpu1.icache.writebacks::writebacks          326                       # number of writebacks (Count)
system.cpu1.icache.writebacks::total              326                       # number of writebacks (Count)
system.cpu1.icache.replacements                   326                       # number of replacements (Count)
system.cpu1.icache.ReadReq.hits::cpu1.inst       222187                       # number of ReadReq hits (Count)
system.cpu1.icache.ReadReq.hits::total         222187                       # number of ReadReq hits (Count)
system.cpu1.icache.ReadReq.misses::cpu1.inst          326                       # number of ReadReq misses (Count)
system.cpu1.icache.ReadReq.misses::total          326                       # number of ReadReq misses (Count)
system.cpu1.icache.ReadReq.accesses::cpu1.inst       222513                       # number of ReadReq accesses(hits+misses) (Count)
system.cpu1.icache.ReadReq.accesses::total       222513                       # number of ReadReq accesses(hits+misses) (Count)
system.cpu1.icache.ReadReq.missRate::cpu1.inst     0.001465                       # miss rate for ReadReq accesses (Ratio)
system.cpu1.icache.ReadReq.missRate::total     0.001465                       # miss rate for ReadReq accesses (Ratio)
system.cpu1.icache.power_state.pwrStateResidencyTicks::UNDEFINED    439238500                       # Cumulative time (in ticks) in various power states (Tick)
system.cpu1.icache.tags.tagsInUse                1024                       # Average ticks per tags in use ((Tick/Count))
system.cpu1.icache.tags.totalRefs               77192                       # Total number of references to valid blocks. (Count)
system.cpu1.icache.tags.sampledRefs               326                       # Sample count of references to valid blocks. (Count)
system.cpu1.icache.tags.avgRefs            236.785276                       # Average number of references to valid blocks. ((Count/Count))
system.cpu1.icache.tags.warmupTick                  0                       # The tick when the warmup percentage was hit. (Tick)
system.cpu1.icache.tags.occupancies::cpu1.inst         1024                       # Average occupied blocks per tick, per requestor ((Count/Tick))
system.cpu1.icache.tags.avgOccs::cpu1.inst            1                       # Average percentage of cache occupancy ((Ratio/Tick))
system.cpu1.icache.tags.avgOccs::total              1                       # Average percentage of cache occupancy ((Ratio/Tick))
system.cpu1.icache.tags.occupanciesTaskId::1024         1024                       # Occupied blocks per task id (Count)
system.cpu1.icache.tags.ageTaskId_1024::2          513                       # Occupied blocks per task id, per block age (Count)
system.cpu1.icache.tags.ageTaskId_1024::3          504                       # Occupied blocks per task id, per block age (Count)
system.cpu1.icache.tags.ageTaskId_1024::4            7                       # Occupied blocks per task id, per block age (Count)
system.cpu1.icache.tags.ratioOccsTaskId::1024            1                       # Ratio of occupied blocks and all blocks, per task id (Ratio)
system.cpu1.icache.tags.tagAccesses            445352                       # Number of tag accesses (Count)
system.cpu1.icache.tags.dataAccesses           445352                       # Number of data accesses (Count)
system.cpu1.icache.tags.power_state.pwrStateResidencyTicks::UNDEFINED    439238500                       # Cumulative time (in ticks) in various power states (Tick)
system.cpu1.interrupts.clk_domain.clock          8000                       # Clock period in ticks (Tick)
system.cpu1.itb_walker_cache.demandHits::cpu1.mmu.itb.walker           22                       # number of demand (read+write) hits (Count)
system.cpu1.itb_walker_cache.demandHits::total           22                       # number of demand (read+write) hits (Count)
system.cpu1.itb_walker_cache.overallHits::cpu1.mmu.itb.walker           22                       # number of overall hits (Count)
system.cpu1.itb_walker_cache.overallHits::total           22                       # number of overall hits (Count)
system.cpu1.itb_walker_cache.demandMisses::cpu1.mmu.itb.walker           58                       # number of demand (read+write) misses (Count)
system.cpu1.itb_walker_cache.demandMisses::total           58                       # number of demand (read+write) misses (Count)
system.cpu1.itb_walker_cache.overallMisses::cpu1.mmu.itb.walker           58                       # number of overall misses (Count)
system.cpu1.itb_walker_cache.overallMisses::total           58                       # number of overall misses (Count)
system.cpu1.itb_walker_cache.demandAccesses::cpu1.mmu.itb.walker           80                       # number of demand (read+write) accesses (Count)
system.cpu1.itb_walker_cache.demandAccesses::total           80                       # number of demand (read+write) accesses (Count)
system.cpu1.itb_walker_cache.overallAccesses::cpu1.mmu.itb.walker           80                       # number of overall (read+write) accesses (Count)
system.cpu1.itb_walker_cache.overallAccesses::total           80                       # number of overall (read+write) accesses (Count)
system.cpu1.itb_walker_cache.demandMissRate::cpu1.mmu.itb.walker     0.725000                       # miss rate for demand accesses (Ratio)
system.cpu1.itb_walker_cache.demandMissRate::total     0.725000                       # miss rate for demand accesses (Ratio)
system.cpu1.itb_walker_cache.overallMissRate::cpu1.mmu.itb.walker     0.725000                       # miss rate for overall accesses (Ratio)
system.cpu1.itb_walker_cache.overallMissRate::total     0.725000                       # miss rate for overall accesses (Ratio)
system.cpu1.itb_walker_cache.blockedCycles::no_mshrs            0                       # number of cycles access was blocked (Cycle)
system.cpu1.itb_walker_cache.blockedCycles::no_targets            0                       # number of cycles access was blocked (Cycle)
system.cpu1.itb_walker_cache.blockedCauses::no_mshrs            0                       # number of times access was blocked (Count)
system.cpu1.itb_walker_cache.blockedCauses::no_targets            0                       # number of times access was blocked (Count)
system.cpu1.itb_walker_cache.avgBlocked::no_mshrs          nan                       # average number of cycles each access was blocked ((Cycle/Count))
system.cpu1.itb_walker_cache.avgBlocked::no_targets          nan                       # average number of cycles each access was blocked ((Cycle/Count))
system.cpu1.itb_walker_cache.replacements           52                       # number of replacements (Count)
system.cpu1.itb_walker_cache.ReadReq.hits::cpu1.mmu.itb.walker           22                       # number of ReadReq hits (Count)
system.cpu1.itb_walker_cache.ReadReq.hits::total           22                       # number of ReadReq hits (Count)
system.cpu1.itb_walker_cache.ReadReq.misses::cpu1.mmu.itb.walker           58                       # number of ReadReq misses (Count)
system.cpu1.itb_walker_cache.ReadReq.misses::total           58                       # number of ReadReq misses (Count)
system.cpu1.itb_walker_cache.ReadReq.accesses::cpu1.mmu.itb.walker           80                       # number of ReadReq accesses(hits+misses) (Count)
system.cpu1.itb_walker_cache.ReadReq.accesses::total           80                       # number of ReadReq accesses(hits+misses) (Count)
system.cpu1.itb_walker_cache.ReadReq.missRate::cpu1.mmu.itb.walker     0.725000                       # miss rate for ReadReq accesses (Ratio)
system.cpu1.itb_walker_cache.ReadReq.missRate::total     0.725000                       # miss rate for ReadReq accesses (Ratio)
system.cpu1.itb_walker_cache.power_state.pwrStateResidencyTicks::UNDEFINED    439238500                       # Cumulative time (in ticks) in various power states (Tick)
system.cpu1.itb_walker_cache.tags.tagsInUse     8.547239                       # Average ticks per tags in use ((Tick/Count))
system.cpu1.itb_walker_cache.tags.totalRefs           52                       # Total number of references to valid blocks. (Count)
system.cpu1.itb_walker_cache.tags.sampledRefs           52                       # Sample count of references to valid blocks. (Count)
system.cpu1.itb_walker_cache.tags.avgRefs            1                       # Average number of references to valid blocks. ((Count/Count))
system.cpu1.itb_walker_cache.tags.warmupTick            0                       # The tick when the warmup percentage was hit. (Tick)
system.cpu1.itb_walker_cache.tags.occupancies::cpu1.mmu.itb.walker     8.547239                       # Average occupied blocks per tick, per requestor ((Count/Tick))
system.cpu1.itb_walker_cache.tags.avgOccs::cpu1.mmu.itb.walker     0.534202                       # Average percentage of cache occupancy ((Ratio/Tick))
system.cpu1.itb_walker_cache.tags.avgOccs::total     0.534202                       # Average percentage of cache occupancy ((Ratio/Tick))
system.cpu1.itb_walker_cache.tags.occupanciesTaskId::1024           10                       # Occupied blocks per task id (Count)
system.cpu1.itb_walker_cache.tags.ageTaskId_1024::2            7                       # Occupied blocks per task id, per block age (Count)
system.cpu1.itb_walker_cache.tags.ageTaskId_1024::3            3                       # Occupied blocks per task id, per block age (Count)
system.cpu1.itb_walker_cache.tags.ratioOccsTaskId::1024     0.625000                       # Ratio of occupied blocks and all blocks, per task id (Ratio)
system.cpu1.itb_walker_cache.tags.tagAccesses          218                       # Number of tag accesses (Count)
system.cpu1.itb_walker_cache.tags.dataAccesses          218                       # Number of data accesses (Count)
system.cpu1.itb_walker_cache.tags.power_state.pwrStateResidencyTicks::UNDEFINED    439238500                       # Cumulative time (in ticks) in various power states (Tick)
system.cpu1.mmu.dtb.rdAccesses                  34803                       # TLB accesses on read requests (Count)
system.cpu1.mmu.dtb.wrAccesses                  15224                       # TLB accesses on write requests (Count)
system.cpu1.mmu.dtb.rdMisses                       36                       # TLB misses on read requests (Count)
system.cpu1.mmu.dtb.wrMisses                        6                       # TLB misses on write requests (Count)
system.cpu1.mmu.dtb.walker.power_state.pwrStateResidencyTicks::UNDEFINED    439238500                       # Cumulative time (in ticks) in various power states (Tick)
system.cpu1.mmu.itb.rdAccesses                      0                       # TLB accesses on read requests (Count)
system.cpu1.mmu.itb.wrAccesses                 222513                       # TLB accesses on write requests (Count)
system.cpu1.mmu.itb.rdMisses                        0                       # TLB misses on read requests (Count)
system.cpu1.mmu.itb.wrMisses                       20                       # TLB misses on write requests (Count)
system.cpu1.mmu.itb.walker.power_state.pwrStateResidencyTicks::UNDEFINED    439238500                       # Cumulative time (in ticks) in various power states (Tick)
system.cpu1.power_state.numTransitions             20                       # Number of power state transitions (Count)
system.cpu1.power_state.ticksClkGated::samples           11                       # Distribution of time spent in the clock gated state (Tick)
[...]
system.switch_cpus6.exec_context.thread_0.statExecutedInstType::MemWrite            0                       # Class of executed instruction. (Count)
system.switch_cpus6.exec_context.thread_0.statExecutedInstType::FloatMemRead            0                       # Class of executed instruction. (Count)
system.switch_cpus6.exec_context.thread_0.statExecutedInstType::FloatMemWrite            0                       # Class of executed instruction. (Count)
system.switch_cpus6.exec_context.thread_0.statExecutedInstType::IprAccess            0                       # Class of executed instruction. (Count)
system.switch_cpus6.exec_context.thread_0.statExecutedInstType::InstPrefetch            0                       # Class of executed instruction. (Count)
system.switch_cpus6.exec_context.thread_0.statExecutedInstType::total            0                       # Class of executed instruction. (Count)
system.switch_cpus6.mmu.dtb.rdAccesses              0                       # TLB accesses on read requests (Count)
system.switch_cpus6.mmu.dtb.wrAccesses              0                       # TLB accesses on write requests (Count)
system.switch_cpus6.mmu.dtb.rdMisses                0                       # TLB misses on read requests (Count)
system.switch_cpus6.mmu.dtb.wrMisses                0                       # TLB misses on write requests (Count)
system.switch_cpus6.mmu.dtb.walker.power_state.pwrStateResidencyTicks::UNDEFINED    439238500                       # Cumulative time (in ticks) in various power states (Tick)
system.switch_cpus6.mmu.itb.rdAccesses              0                       # TLB accesses on read requests (Count)
system.switch_cpus6.mmu.itb.wrAccesses              0                       # TLB accesses on write requests (Count)
system.switch_cpus6.mmu.itb.rdMisses                0                       # TLB misses on read requests (Count)
system.switch_cpus6.mmu.itb.wrMisses                0                       # TLB misses on write requests (Count)
system.switch_cpus6.mmu.itb.walker.power_state.pwrStateResidencyTicks::UNDEFINED    439238500                       # Cumulative time (in ticks) in various power states (Tick)
system.switch_cpus6.power_state.pwrStateResidencyTicks::OFF    439238500                       # Cumulative time (in ticks) in various power states (Tick)
system.switch_cpus6.thread_0.numInsts               0                       # Number of Instructions committed (Count)
system.switch_cpus6.thread_0.numOps                 0                       # Number of Ops committed (Count)
system.switch_cpus6.thread_0.numMemRefs             0                       # Number of Memory References (Count)
system.tol2bus.transDist::ReadReq                 237                       # Transaction distribution (Count)
system.tol2bus.transDist::ReadResp               7433                       # Transaction distribution (Count)
system.tol2bus.transDist::WriteReq                157                       # Transaction distribution (Count)
system.tol2bus.transDist::WriteResp               157                       # Transaction distribution (Count)
system.tol2bus.transDist::WritebackDirty           82                       # Transaction distribution (Count)
system.tol2bus.transDist::WritebackClean         3917                       # Transaction distribution (Count)
system.tol2bus.transDist::CleanEvict             1483                       # Transaction distribution (Count)
system.tol2bus.transDist::UpgradeReq             1285                       # Transaction distribution (Count)
system.tol2bus.transDist::UpgradeResp            1285                       # Transaction distribution (Count)
system.tol2bus.transDist::ReadExReq              2972                       # Transaction distribution (Count)
system.tol2bus.transDist::ReadExResp             2972                       # Transaction distribution (Count)
system.tol2bus.transDist::ReadCleanReq           3918                       # Transaction distribution (Count)
system.tol2bus.transDist::ReadSharedReq          3278                       # Transaction distribution (Count)
system.tol2bus.pktCount_system.cpu0.icache.mem_side_port::system.l2.cpu_side_port           48                       # Packet count per connected requestor and responder (Count)
system.tol2bus.pktCount_system.cpu0.dcache.mem_side_port::system.l2.cpu_side_port          312                       # Packet count per connected requestor and responder (Count)
system.tol2bus.pktCount_system.cpu1.icache.mem_side_port::system.l2.cpu_side_port          978                       # Packet count per connected requestor and responder (Count)
system.tol2bus.pktCount_system.cpu1.dcache.mem_side_port::system.l2.cpu_side_port         1325                       # Packet count per connected requestor and responder (Count)
system.tol2bus.pktCount_system.cpu1.itb_walker_cache.mem_side_port::system.l2.cpu_side_port          168                       # Packet count per connected requestor and responder (Count)
system.tol2bus.pktCount_system.cpu1.dtb_walker_cache.mem_side_port::system.l2.cpu_side_port          280                       # Packet count per connected requestor and responder (Count)
system.tol2bus.pktCount_system.cpu2.icache.mem_side_port::system.l2.cpu_side_port          957                       # Packet count per connected requestor and responder (Count)
system.tol2bus.pktCount_system.cpu2.dcache.mem_side_port::system.l2.cpu_side_port         1318                       # Packet count per connected requestor and responder (Count)
system.tol2bus.pktCount_system.cpu2.itb_walker_cache.mem_side_port::system.l2.cpu_side_port          137                       # Packet count per connected requestor and responder (Count)
system.tol2bus.pktCount_system.cpu2.dtb_walker_cache.mem_side_port::system.l2.cpu_side_port          208                       # Packet count per connected requestor and responder (Count)
system.tol2bus.pktCount_system.cpu3.icache.mem_side_port::system.l2.cpu_side_port         1347                       # Packet count per connected requestor and responder (Count)
system.tol2bus.pktCount_system.cpu3.dcache.mem_side_port::system.l2.cpu_side_port         1379                       # Packet count per connected requestor and responder (Count)
system.tol2bus.pktCount_system.cpu3.itb_walker_cache.mem_side_port::system.l2.cpu_side_port          111                       # Packet count per connected requestor and responder (Count)
system.tol2bus.pktCount_system.cpu3.dtb_walker_cache.mem_side_port::system.l2.cpu_side_port          148                       # Packet count per connected requestor and responder (Count)
system.tol2bus.pktCount_system.cpu4.icache.mem_side_port::system.l2.cpu_side_port         5966                       # Packet count per connected requestor and responder (Count)
system.tol2bus.pktCount_system.cpu4.dcache.mem_side_port::system.l2.cpu_side_port         5278                       # Packet count per connected requestor and responder (Count)
system.tol2bus.pktCount_system.cpu4.itb_walker_cache.mem_side_port::system.l2.cpu_side_port          727                       # Packet count per connected requestor and responder (Count)
system.tol2bus.pktCount_system.cpu4.dtb_walker_cache.mem_side_port::system.l2.cpu_side_port         1140                       # Packet count per connected requestor and responder (Count)
system.tol2bus.pktCount_system.cpu5.icache.mem_side_port::system.l2.cpu_side_port         1416                       # Packet count per connected requestor and responder (Count)
system.tol2bus.pktCount_system.cpu5.dcache.mem_side_port::system.l2.cpu_side_port         1998                       # Packet count per connected requestor and responder (Count)
system.tol2bus.pktCount_system.cpu5.itb_walker_cache.mem_side_port::system.l2.cpu_side_port          367                       # Packet count per connected requestor and responder (Count)
system.tol2bus.pktCount_system.cpu5.dtb_walker_cache.mem_side_port::system.l2.cpu_side_port          641                       # Packet count per connected requestor and responder (Count)
system.tol2bus.pktCount_system.cpu6.icache.mem_side_port::system.l2.cpu_side_port         1041                       # Packet count per connected requestor and responder (Count)
system.tol2bus.pktCount_system.cpu6.dcache.mem_side_port::system.l2.cpu_side_port         1388                       # Packet count per connected requestor and responder (Count)
system.tol2bus.pktCount_system.cpu6.itb_walker_cache.mem_side_port::system.l2.cpu_side_port          189                       # Packet count per connected requestor and responder (Count)
system.tol2bus.pktCount_system.cpu6.dtb_walker_cache.mem_side_port::system.l2.cpu_side_port          309                       # Packet count per connected requestor and responder (Count)
system.tol2bus.pktCount::total                  29176                       # Packet count per connected requestor and responder (Count)
system.tol2bus.pktSize_system.cpu0.icache.mem_side_port::system.l2.cpu_side_port         2048                       # Cumulative packet size per connected requestor and responder (Byte)
system.tol2bus.pktSize_system.cpu0.dcache.mem_side_port::system.l2.cpu_side_port         4296                       # Cumulative packet size per connected requestor and responder (Byte)
system.tol2bus.pktSize_system.cpu1.icache.mem_side_port::system.l2.cpu_side_port        41728                       # Cumulative packet size per connected requestor and responder (Byte)
system.tol2bus.pktSize_system.cpu1.dcache.mem_side_port::system.l2.cpu_side_port        33368                       # Cumulative packet size per connected requestor and responder (Byte)
system.tol2bus.pktSize_system.cpu1.itb_walker_cache.mem_side_port::system.l2.cpu_side_port         3712                       # Cumulative packet size per connected requestor and responder (Byte)
system.tol2bus.pktSize_system.cpu1.dtb_walker_cache.mem_side_port::system.l2.cpu_side_port         6080                       # Cumulative packet size per connected requestor and responder (Byte)
system.tol2bus.pktSize_system.cpu2.icache.mem_side_port::system.l2.cpu_side_port        40832                       # Cumulative packet size per connected requestor and responder (Byte)
system.tol2bus.pktSize_system.cpu2.dcache.mem_side_port::system.l2.cpu_side_port        33428                       # Cumulative packet size per connected requestor and responder (Byte)
system.tol2bus.pktSize_system.cpu2.itb_walker_cache.mem_side_port::system.l2.cpu_side_port         3008                       # Cumulative packet size per connected requestor and responder (Byte)
system.tol2bus.pktSize_system.cpu2.dtb_walker_cache.mem_side_port::system.l2.cpu_side_port         4544                       # Cumulative packet size per connected requestor and responder (Byte)
system.tol2bus.pktSize_system.cpu3.icache.mem_side_port::system.l2.cpu_side_port        57472                       # Cumulative packet size per connected requestor and responder (Byte)
system.tol2bus.pktSize_system.cpu3.dcache.mem_side_port::system.l2.cpu_side_port        34900                       # Cumulative packet size per connected requestor and responder (Byte)
system.tol2bus.pktSize_system.cpu3.itb_walker_cache.mem_side_port::system.l2.cpu_side_port         2432                       # Cumulative packet size per connected requestor and responder (Byte)
system.tol2bus.pktSize_system.cpu3.dtb_walker_cache.mem_side_port::system.l2.cpu_side_port         3264                       # Cumulative packet size per connected requestor and responder (Byte)
system.tol2bus.pktSize_system.cpu4.icache.mem_side_port::system.l2.cpu_side_port       254528                       # Cumulative packet size per connected requestor and responder (Byte)
system.tol2bus.pktSize_system.cpu4.dcache.mem_side_port::system.l2.cpu_side_port       120372                       # Cumulative packet size per connected requestor and responder (Byte)
system.tol2bus.pktSize_system.cpu4.itb_walker_cache.mem_side_port::system.l2.cpu_side_port        15552                       # Cumulative packet size per connected requestor and responder (Byte)
system.tol2bus.pktSize_system.cpu4.dtb_walker_cache.mem_side_port::system.l2.cpu_side_port        24704                       # Cumulative packet size per connected requestor and responder (Byte)
system.tol2bus.pktSize_system.cpu5.icache.mem_side_port::system.l2.cpu_side_port        60416                       # Cumulative packet size per connected requestor and responder (Byte)
system.tol2bus.pktSize_system.cpu5.dcache.mem_side_port::system.l2.cpu_side_port        48684                       # Cumulative packet size per connected requestor and responder (Byte)
system.tol2bus.pktSize_system.cpu5.itb_walker_cache.mem_side_port::system.l2.cpu_side_port         8000                       # Cumulative packet size per connected requestor and responder (Byte)
system.tol2bus.pktSize_system.cpu5.dtb_walker_cache.mem_side_port::system.l2.cpu_side_port        13888                       # Cumulative packet size per connected requestor and responder (Byte)
system.tol2bus.pktSize_system.cpu6.icache.mem_side_port::system.l2.cpu_side_port        44416                       # Cumulative packet size per connected requestor and responder (Byte)
system.tol2bus.pktSize_system.cpu6.dcache.mem_side_port::system.l2.cpu_side_port        34982                       # Cumulative packet size per connected requestor and responder (Byte)
system.tol2bus.pktSize_system.cpu6.itb_walker_cache.mem_side_port::system.l2.cpu_side_port         4096                       # Cumulative packet size per connected requestor and responder (Byte)
system.tol2bus.pktSize_system.cpu6.dtb_walker_cache.mem_side_port::system.l2.cpu_side_port         6656                       # Cumulative packet size per connected requestor and responder (Byte)
system.tol2bus.pktSize::total                  907406                       # Cumulative packet size per connected requestor and responder (Byte)
system.tol2bus.snoops                            3972                       # Total snoops (Count)
system.tol2bus.snoopTraffic                      3904                       # Total snoop traffic (Byte)
system.tol2bus.snoopFanout::samples             15819                       # Request fanout histogram (Count)
system.tol2bus.snoopFanout::mean             2.422151                       # Request fanout histogram (Count)
system.tol2bus.snoopFanout::stdev            3.174279                       # Request fanout histogram (Count)
system.tol2bus.snoopFanout::underflows              0      0.00%      0.00% # Request fanout histogram (Count)
system.tol2bus.snoopFanout::0                    3393     21.45%     21.45% # Request fanout histogram (Count)
system.tol2bus.snoopFanout::1                    6626     41.89%     63.34% # Request fanout histogram (Count)
system.tol2bus.snoopFanout::2                    1393      8.81%     72.14% # Request fanout histogram (Count)
system.tol2bus.snoopFanout::3                     752      4.75%     76.89% # Request fanout histogram (Count)
system.tol2bus.snoopFanout::4                     638      4.03%     80.93% # Request fanout histogram (Count)
system.tol2bus.snoopFanout::5                     753      4.76%     85.69% # Request fanout histogram (Count)
system.tol2bus.snoopFanout::6                     854      5.40%     91.09% # Request fanout histogram (Count)
system.tol2bus.snoopFanout::7                     337      2.13%     93.22% # Request fanout histogram (Count)
system.tol2bus.snoopFanout::8                       3      0.02%     93.24% # Request fanout histogram (Count)
system.tol2bus.snoopFanout::9                      18      0.11%     93.35% # Request fanout histogram (Count)
system.tol2bus.snoopFanout::10                     67      0.42%     93.77% # Request fanout histogram (Count)
system.tol2bus.snoopFanout::11                    522      3.30%     97.07% # Request fanout histogram (Count)
system.tol2bus.snoopFanout::12                    143      0.90%     97.98% # Request fanout histogram (Count)
system.tol2bus.snoopFanout::13                    160      1.01%     98.99% # Request fanout histogram (Count)
system.tol2bus.snoopFanout::14                     39      0.25%     99.24% # Request fanout histogram (Count)
system.tol2bus.snoopFanout::15                     47      0.30%     99.53% # Request fanout histogram (Count)
system.tol2bus.snoopFanout::16                     55      0.35%     99.88% # Request fanout histogram (Count)
system.tol2bus.snoopFanout::17                     19      0.12%    100.00% # Request fanout histogram (Count)
system.tol2bus.snoopFanout::18                      0      0.00%    100.00% # Request fanout histogram (Count)
system.tol2bus.snoopFanout::19                      0      0.00%    100.00% # Request fanout histogram (Count)
system.tol2bus.snoopFanout::20                      0      0.00%    100.00% # Request fanout histogram (Count)
system.tol2bus.snoopFanout::21                      0      0.00%    100.00% # Request fanout histogram (Count)
system.tol2bus.snoopFanout::22                      0      0.00%    100.00% # Request fanout histogram (Count)
system.tol2bus.snoopFanout::23                      0      0.00%    100.00% # Request fanout histogram (Count)
system.tol2bus.snoopFanout::24                      0      0.00%    100.00% # Request fanout histogram (Count)
system.tol2bus.snoopFanout::25                      0      0.00%    100.00% # Request fanout histogram (Count)
system.tol2bus.snoopFanout::26                      0      0.00%    100.00% # Request fanout histogram (Count)
system.tol2bus.snoopFanout::27                      0      0.00%    100.00% # Request fanout histogram (Count)
system.tol2bus.snoopFanout::28                      0      0.00%    100.00% # Request fanout histogram (Count)
system.tol2bus.snoopFanout::overflows               0      0.00%    100.00% # Request fanout histogram (Count)
system.tol2bus.snoopFanout::min_value               0                       # Request fanout histogram (Count)
system.tol2bus.snoopFanout::max_value              17                       # Request fanout histogram (Count)
system.tol2bus.snoopFanout::total               15819                       # Request fanout histogram (Count)
system.tol2bus.power_state.pwrStateResidencyTicks::UNDEFINED    439238500                       # Cumulative time (in ticks) in various power states (Tick)
system.tol2bus.snoop_filter.totRequests         16935                       # Total number of requests made to the snoop filter. (Count)
system.tol2bus.snoop_filter.hitSingleRequests         5703                       # Number of requests hitting in the snoop filter with a single holder of the requested data. (Count)
system.tol2bus.snoop_filter.hitMultiRequests         9245                       # Number of requests hitting in the snoop filter with multiple (>1) holders of the requested data. (Count)
system.tol2bus.snoop_filter.totSnoops            2961                       # Total number of snoops made to the snoop filter. (Count)
system.tol2bus.snoop_filter.hitSingleSnoops         1425                       # Number of snoops hitting in the snoop filter with a single holder of the requested data. (Count)
system.tol2bus.snoop_filter.hitMultiSnoops         1536                       # Number of snoops hitting in the snoop filter with multiple (>1) holders of the requested data. (Count)
system.voltage_domain.voltage                       1                       # Voltage in Volts (Volt)
system.workload.inst.arm                            0                       # number of arm instructions executed (Count)
system.workload.inst.quiesce                        0                       # number of quiesce instructions executed (Count)

---------- End Simulation Statistics   ----------

